serotonin
     RDKit          3D

 13 14  0  0  0  0  0  0  0  0999 V2000
   21.0169   17.7393    8.4219 N   0  0  0  0  0  0  0  0  0  0  0  0
   20.5851   19.1011    8.6769 C   0  0  0  0  0  0  0  0  0  0  0  0
   19.8463   19.0591   10.0005 C   0  0  0  0  0  0  0  0  0  0  0  0
   19.5091   20.3945   10.5258 C   0  0  0  0  0  0  0  0  0  0  0  0
   18.5868   21.2362    9.8929 C   0  0  0  0  0  0  0  0  0  0  0  0
   18.4921   22.3800   10.6176 N   0  0  0  0  0  0  0  0  0  0  0  0
   19.3122   22.2775   11.6641 C   0  0  0  0  0  0  0  0  0  0  0  0
   19.5419   23.2067   12.6720 C   0  0  0  0  0  0  0  0  0  0  0  0
   20.4594   22.8441   13.6570 C   0  0  0  0  0  0  0  0  0  0  0  0
   21.1049   21.6269   13.6320 C   0  0  0  0  0  0  0  0  0  0  0  0
   22.0032   21.3361   14.6433 O   0  0  0  0  0  0  0  0  0  0  0  0
   20.8709   20.7075   12.6265 C   0  0  0  0  0  0  0  0  0  0  0  0
   19.9606   21.0602   11.6418 C   0  0  0  0  0  0  0  0  0  0  0  0
  2  1  1  1
  2  3  1  0
  3  4  1  1
  4  5  2  0
  5  6  1  0
  6  7  1  0
  7  8  2  0
  8  9  1  0
  9 10  2  0
 10 11  1  0
 10 12  1  0
 12 13  2  0
 13  4  1  0
 13  7  1  0
M  END
$$$$
