serotonin
     RDKit          3D

 13 14  0  0  0  0  0  0  0  0999 V2000
   19.8175   18.9762    8.9557 N   0  0  0  0  0  0  0  0  0  0  0  0
   19.6445   20.3660    9.3357 C   0  0  0  0  0  0  0  0  0  0  0  0
   18.7837   20.3488   10.5839 C   0  0  0  0  0  0  0  0  0  0  0  0
   18.5915   21.6826   11.1814 C   0  0  0  0  0  0  0  0  0  0  0  0
   17.5411   22.5274   10.8031 C   0  0  0  0  0  0  0  0  0  0  0  0
   17.6334   23.6686   11.5320 N   0  0  0  0  0  0  0  0  0  0  0  0
   18.6899   23.5618   12.3387 C   0  0  0  0  0  0  0  0  0  0  0  0
   19.1668   24.4872   13.2596 C   0  0  0  0  0  0  0  0  0  0  0  0
   20.3017   24.1204   13.9815 C   0  0  0  0  0  0  0  0  0  0  0  0
   20.9181   22.9028   13.7913 C   0  0  0  0  0  0  0  0  0  0  0  0
   22.0411   22.6077   14.5437 O   0  0  0  0  0  0  0  0  0  0  0  0
   20.4377   21.9871   12.8738 C   0  0  0  0  0  0  0  0  0  0  0  0
   19.3098   22.3440   12.1504 C   0  0  0  0  0  0  0  0  0  0  0  0
  2  1  1  1
  2  3  1  0
  3  4  1  1
  4  5  2  0
  5  6  1  0
  6  7  1  0
  7  8  2  0
  8  9  1  0
  9 10  2  0
 10 11  1  0
 10 12  1  0
 12 13  2  0
 13  4  1  0
 13  7  1  0
M  END
$$$$
