serotonin
     RDKit          3D

 13 14  0  0  0  0  0  0  0  0999 V2000
   21.0871   17.8682    7.8135 N   0  0  0  0  0  0  0  0  0  0  0  0
   20.8538   19.0962    8.5507 C   0  0  0  0  0  0  0  0  0  0  0  0
   20.1421   18.6842    9.8247 C   0  0  0  0  0  0  0  0  0  0  0  0
   19.9615   19.7927   10.7796 C   0  0  0  0  0  0  0  0  0  0  0  0
   19.1035   20.8687   10.5229 C   0  0  0  0  0  0  0  0  0  0  0  0
   19.1528   21.7112   11.5859 N   0  0  0  0  0  0  0  0  0  0  0  0
   19.9997   21.2013   12.4809 C   0  0  0  0  0  0  0  0  0  0  0  0
   20.3613   21.7218   13.7180 C   0  0  0  0  0  0  0  0  0  0  0  0
   21.2764   20.9798   14.4633 C   0  0  0  0  0  0  0  0  0  0  0  0
   21.7953   19.7916   13.9969 C   0  0  0  0  0  0  0  0  0  0  0  0
   22.6997   19.1099   14.7917 O   0  0  0  0  0  0  0  0  0  0  0  0
   21.4306   19.2797   12.7655 C   0  0  0  0  0  0  0  0  0  0  0  0
   20.5215   20.0117   12.0168 C   0  0  0  0  0  0  0  0  0  0  0  0
  2  1  1  1
  2  3  1  0
  3  4  1  1
  4  5  2  0
  5  6  1  0
  6  7  1  0
  7  8  2  0
  8  9  1  0
  9 10  2  0
 10 11  1  0
 10 12  1  0
 12 13  2  0
 13  4  1  0
 13  7  1  0
M  END
$$$$
