serotonin
     RDKit          3D

 13 14  0  0  0  0  0  0  0  0999 V2000
   20.4333   17.8471    8.2098 N   0  0  0  0  0  0  0  0  0  0  0  0
   20.4975   19.2423    8.6038 C   0  0  0  0  0  0  0  0  0  0  0  0
   19.5143   19.3938    9.7483 C   0  0  0  0  0  0  0  0  0  0  0  0
   19.5367   20.7318   10.3666 C   0  0  0  0  0  0  0  0  0  0  0  0
   18.6447   21.7438    9.9921 C   0  0  0  0  0  0  0  0  0  0  0  0
   18.9142   22.8430   10.7414 N   0  0  0  0  0  0  0  0  0  0  0  0
   19.9282   22.5512   11.5569 C   0  0  0  0  0  0  0  0  0  0  0  0
   20.5392   23.3711   12.4984 C   0  0  0  0  0  0  0  0  0  0  0  0
   21.5887   22.8114   13.2254 C   0  0  0  0  0  0  0  0  0  0  0  0
   21.9987   21.5119   13.0205 C   0  0  0  0  0  0  0  0  0  0  0  0
   23.0480   21.0242   13.7791 O   0  0  0  0  0  0  0  0  0  0  0  0
   21.3859   20.7020   12.0826 C   0  0  0  0  0  0  0  0  0  0  0  0
   20.3416   21.2509   11.3540 C   0  0  0  0  0  0  0  0  0  0  0  0
  2  1  1  1
  2  3  1  0
  3  4  1  1
  4  5  2  0
  5  6  1  0
  6  7  1  0
  7  8  2  0
  8  9  1  0
  9 10  2  0
 10 11  1  0
 10 12  1  0
 12 13  2  0
 13  4  1  0
 13  7  1  0
M  END
$$$$
