serotonin
     RDKit          3D

 13 14  0  0  0  0  0  0  0  0999 V2000
   21.2854   18.0493    7.7858 N   0  0  0  0  0  0  0  0  0  0  0  0
   20.8184   19.1694    8.5817 C   0  0  0  0  0  0  0  0  0  0  0  0
   19.9607   18.5679    9.6780 C   0  0  0  0  0  0  0  0  0  0  0  0
   19.4711   19.5616   10.6505 C   0  0  0  0  0  0  0  0  0  0  0  0
   18.5086   20.5224   10.3180 C   0  0  0  0  0  0  0  0  0  0  0  0
   18.2675   21.2777   11.4197 N   0  0  0  0  0  0  0  0  0  0  0  0
   19.0363   20.8242   12.4104 C   0  0  0  0  0  0  0  0  0  0  0  0
   19.1227   21.2922   13.7164 C   0  0  0  0  0  0  0  0  0  0  0  0
   20.0161   20.6310   14.5579 C   0  0  0  0  0  0  0  0  0  0  0  0
   20.7741   19.5681   14.1169 C   0  0  0  0  0  0  0  0  0  0  0  0
   21.6403   18.9610   15.0088 O   0  0  0  0  0  0  0  0  0  0  0  0
   20.6824   19.1078   12.8165 C   0  0  0  0  0  0  0  0  0  0  0  0
   19.7970   19.7602   11.9721 C   0  0  0  0  0  0  0  0  0  0  0  0
  2  1  1  1
  2  3  1  0
  3  4  1  1
  4  5  2  0
  5  6  1  0
  6  7  1  0
  7  8  2  0
  8  9  1  0
  9 10  2  0
 10 11  1  0
 10 12  1  0
 12 13  2  0
 13  4  1  0
 13  7  1  0
M  END
$$$$
