serotonin
     RDKit          3D

 13 14  0  0  0  0  0  0  0  0999 V2000
   20.6801   18.4898    7.9168 N   0  0  0  0  0  0  0  0  0  0  0  0
   20.7527   19.3577    9.0776 C   0  0  0  0  0  0  0  0  0  0  0  0
   20.1904   18.5513   10.2321 C   0  0  0  0  0  0  0  0  0  0  0  0
   20.1748   19.2882   11.5087 C   0  0  0  0  0  0  0  0  0  0  0  0
   19.4042   20.4417   11.6971 C   0  0  0  0  0  0  0  0  0  0  0  0
   19.5997   20.8775   12.9676 N   0  0  0  0  0  0  0  0  0  0  0  0
   20.4527   20.0449   13.5655 C   0  0  0  0  0  0  0  0  0  0  0  0
   20.9403   20.0995   14.8660 C   0  0  0  0  0  0  0  0  0  0  0  0
   21.8302   19.0940   15.2410 C   0  0  0  0  0  0  0  0  0  0  0  0
   22.2065   18.0976   14.3667 C   0  0  0  0  0  0  0  0  0  0  0  0
   23.0943   17.1330   14.8090 O   0  0  0  0  0  0  0  0  0  0  0  0
   21.7169   18.0494   13.0748 C   0  0  0  0  0  0  0  0  0  0  0  0
   20.8319   19.0463   12.6927 C   0  0  0  0  0  0  0  0  0  0  0  0
  2  1  1  1
  2  3  1  0
  3  4  1  1
  4  5  2  0
  5  6  1  0
  6  7  1  0
  7  8  2  0
  8  9  1  0
  9 10  2  0
 10 11  1  0
 10 12  1  0
 12 13  2  0
 13  4  1  0
 13  7  1  0
M  END
$$$$
