serotonin
     RDKit          3D

 13 14  0  0  0  0  0  0  0  0999 V2000
   20.2650   19.2167    8.7338 N   0  0  0  0  0  0  0  0  0  0  0  0
   20.6223   17.9156    8.1993 C   0  0  0  0  0  0  0  0  0  0  0  0
   22.0852   18.0156    7.8128 C   0  0  0  0  0  0  0  0  0  0  0  0
   22.6207   16.7764    7.2208 C   0  0  0  0  0  0  0  0  0  0  0  0
   22.4057   16.4341    5.8804 C   0  0  0  0  0  0  0  0  0  0  0  0
   23.0254   15.2502    5.6421 N   0  0  0  0  0  0  0  0  0  0  0  0
   23.6099   14.8525    6.7728 C   0  0  0  0  0  0  0  0  0  0  0  0
   24.3545   13.7007    6.9981 C   0  0  0  0  0  0  0  0  0  0  0  0
   24.8574   13.5252    8.2864 C   0  0  0  0  0  0  0  0  0  0  0  0
   24.6276   14.4469    9.2846 C   0  0  0  0  0  0  0  0  0  0  0  0
   25.1580   14.2057   10.5396 O   0  0  0  0  0  0  0  0  0  0  0  0
   23.8864   15.5907    9.0531 C   0  0  0  0  0  0  0  0  0  0  0  0
   23.3813   15.7728    7.7746 C   0  0  0  0  0  0  0  0  0  0  0  0
  2  1  1  1
  2  3  1  0
  3  4  1  1
  4  5  2  0
  5  6  1  0
  6  7  1  0
  7  8  2  0
  8  9  1  0
  9 10  2  0
 10 11  1  0
 10 12  1  0
 12 13  2  0
 13  4  1  0
 13  7  1  0
M  END
$$$$
