serotonin
     RDKit          3D

 13 14  0  0  0  0  0  0  0  0999 V2000
   20.3148   18.4092    8.5844 N   0  0  0  0  0  0  0  0  0  0  0  0
   20.2620   19.7720    9.0802 C   0  0  0  0  0  0  0  0  0  0  0  0
   19.4864   19.7083   10.3817 C   0  0  0  0  0  0  0  0  0  0  0  0
   19.4211   21.0001   11.0886 C   0  0  0  0  0  0  0  0  0  0  0  0
   18.5430   22.0201   10.7032 C   0  0  0  0  0  0  0  0  0  0  0  0
   18.7176   23.0690   11.5468 N   0  0  0  0  0  0  0  0  0  0  0  0
   19.6602   22.7387   12.4304 C   0  0  0  0  0  0  0  0  0  0  0  0
   20.1639   23.5016   13.4775 C   0  0  0  0  0  0  0  0  0  0  0  0
   21.1563   22.9108   14.2583 C   0  0  0  0  0  0  0  0  0  0  0  0
   21.6137   21.6360   14.0044 C   0  0  0  0  0  0  0  0  0  0  0  0
   22.6012   21.1149   14.8215 O   0  0  0  0  0  0  0  0  0  0  0  0
   21.1076   20.8829   12.9614 C   0  0  0  0  0  0  0  0  0  0  0  0
   20.1208   21.4631   12.1788 C   0  0  0  0  0  0  0  0  0  0  0  0
  2  1  1  1
  2  3  1  0
  3  4  1  1
  4  5  2  0
  5  6  1  0
  6  7  1  0
  7  8  2  0
  8  9  1  0
  9 10  2  0
 10 11  1  0
 10 12  1  0
 12 13  2  0
 13  4  1  0
 13  7  1  0
M  END
$$$$
