serotonin
     RDKit          3D

 13 14  0  0  0  0  0  0  0  0999 V2000
   22.4358   16.8293    6.3708 N   0  0  0  0  0  0  0  0  0  0  0  0
   21.4076   17.7017    6.9071 C   0  0  0  0  0  0  0  0  0  0  0  0
   21.6523   17.7579    8.4026 C   0  0  0  0  0  0  0  0  0  0  0  0
   20.7454   18.6795    9.1104 C   0  0  0  0  0  0  0  0  0  0  0  0
   19.6626   19.2987    8.4746 C   0  0  0  0  0  0  0  0  0  0  0  0
   19.0241   20.0744    9.3873 N   0  0  0  0  0  0  0  0  0  0  0  0
   19.6645   19.9586   10.5512 C   0  0  0  0  0  0  0  0  0  0  0  0
   19.3661   20.5714   11.7626 C   0  0  0  0  0  0  0  0  0  0  0  0
   20.2062   20.2750   12.8349 C   0  0  0  0  0  0  0  0  0  0  0  0
   21.2771   19.4183   12.7000 C   0  0  0  0  0  0  0  0  0  0  0  0
   22.0678   19.1716   13.8083 O   0  0  0  0  0  0  0  0  0  0  0  0
   21.5674   18.8120   11.4920 C   0  0  0  0  0  0  0  0  0  0  0  0
   20.7376   19.1020   10.4196 C   0  0  0  0  0  0  0  0  0  0  0  0
  2  1  1  1
  2  3  1  0
  3  4  1  1
  4  5  2  0
  5  6  1  0
  6  7  1  0
  7  8  2  0
  8  9  1  0
  9 10  2  0
 10 11  1  0
 10 12  1  0
 12 13  2  0
 13  4  1  0
 13  7  1  0
M  END
$$$$
