serotonin
     RDKit          3D

 13 14  0  0  0  0  0  0  0  0999 V2000
   19.6510   19.0884    9.2572 N   0  0  0  0  0  0  0  0  0  0  0  0
   20.3961   19.9760   10.1308 C   0  0  0  0  0  0  0  0  0  0  0  0
   19.3720   20.5925   11.0639 C   0  0  0  0  0  0  0  0  0  0  0  0
   19.9083   21.7037   11.8704 C   0  0  0  0  0  0  0  0  0  0  0  0
   19.7006   23.0451   11.5276 C   0  0  0  0  0  0  0  0  0  0  0  0
   20.3091   23.8190   12.4620 N   0  0  0  0  0  0  0  0  0  0  0  0
   20.8786   23.0147   13.3605 C   0  0  0  0  0  0  0  0  0  0  0  0
   21.6085   23.3659   14.4900 C   0  0  0  0  0  0  0  0  0  0  0  0
   22.0979   22.3171   15.2672 C   0  0  0  0  0  0  0  0  0  0  0  0
   21.8691   21.0002   14.9322 C   0  0  0  0  0  0  0  0  0  0  0  0
   22.3864   20.0122   15.7510 O   0  0  0  0  0  0  0  0  0  0  0  0
   21.1416   20.6585   13.8074 C   0  0  0  0  0  0  0  0  0  0  0  0
   20.6519   21.6954   13.0278 C   0  0  0  0  0  0  0  0  0  0  0  0
  2  1  1  1
  2  3  1  0
  3  4  1  1
  4  5  2  0
  5  6  1  0
  6  7  1  0
  7  8  2  0
  8  9  1  0
  9 10  2  0
 10 11  1  0
 10 12  1  0
 12 13  2  0
 13  4  1  0
 13  7  1  0
M  END
$$$$
