biotin
     RDKit          3D

 32 33  0  0  0  0  0  0  0  0999 V2000
    3.1338   -1.0410    0.6469 C   0  0  0  0  0  0  0  0  0  0  0  0
    3.1759   -0.6866   -0.8420 C   0  0  1  0  0  0  0  0  0  0  0  0
    1.9711    0.2080   -1.1516 C   0  0  1  0  0  0  0  0  0  0  0  0
    0.7520   -0.2889   -0.3713 C   0  0  1  0  0  0  0  0  0  0  0  0
    1.3949   -1.0614    1.1502 S   0  0  0  0  0  0  0  0  0  0  0  0
   -0.2974    0.7985   -0.1118 C   0  0  0  0  0  0  0  0  0  0  0  0
   -1.5809    0.3451    0.5990 C   0  0  0  0  0  0  0  0  0  0  0  0
   -2.3487   -0.7452   -0.1562 C   0  0  0  0  0  0  0  0  0  0  0  0
   -3.7003   -1.0553    0.4892 C   0  0  0  0  0  0  0  0  0  0  0  0
   -4.7248    0.0201    0.2411 C   0  0  0  0  0  0  0  0  0  0  0  0
   -4.6538    0.9440   -0.5507 O   0  0  0  0  0  0  0  0  0  0  0  0
   -5.8238   -0.1476    1.0024 O   0  0  0  0  0  0  0  0  0  0  0  0
    2.4923    1.5264   -0.8598 N   0  0  0  0  0  0  0  0  0  0  0  0
    3.8705    1.5219   -1.0328 C   0  0  0  0  0  0  0  0  0  0  0  0
    4.5895    2.4998   -1.0899 O   0  0  0  0  0  0  0  0  0  0  0  0
    4.2778    0.2006   -1.1426 N   0  0  0  0  0  0  0  0  0  0  0  0
    3.6631   -0.3091    1.2669 H   0  0  0  0  0  0  0  0  0  0  0  0
    3.5941   -2.0170    0.8290 H   0  0  0  0  0  0  0  0  0  0  0  0
    3.2189   -1.5771   -1.4768 H   0  0  0  0  0  0  0  0  0  0  0  0
    1.7531    0.2084   -2.2280 H   0  0  0  0  0  0  0  0  0  0  0  0
    0.3033   -1.1042   -0.9496 H   0  0  0  0  0  0  0  0  0  0  0  0
    0.1433    1.6095    0.4826 H   0  0  0  0  0  0  0  0  0  0  0  0
   -0.5796    1.2463   -1.0739 H   0  0  0  0  0  0  0  0  0  0  0  0
   -1.3513   -0.0019    1.6130 H   0  0  0  0  0  0  0  0  0  0  0  0
   -2.2204    1.2280    0.7191 H   0  0  0  0  0  0  0  0  0  0  0  0
   -1.7577   -1.6680   -0.1584 H   0  0  0  0  0  0  0  0  0  0  0  0
   -2.4874   -0.4480   -1.2025 H   0  0  0  0  0  0  0  0  0  0  0  0
   -4.0962   -1.9839    0.0630 H   0  0  0  0  0  0  0  0  0  0  0  0
   -3.5771   -1.1909    1.5693 H   0  0  0  0  0  0  0  0  0  0  0  0
   -6.4086    0.5959    0.7455 H   0  0  0  0  0  0  0  0  0  0  0  0
    2.0106    2.3983   -1.0407 H   0  0  0  0  0  0  0  0  0  0  0  0
    5.2639   -0.0248   -1.1138 H   0  0  0  0  0  0  0  0  0  0  0  0
  1  2  1  0
  2  3  1  0
  3  4  1  0
  4  5  1  0
  4  6  1  0
  6  7  1  0
  7  8  1  0
  8  9  1  0
  9 10  1  0
 10 11  2  0
 10 12  1  0
  3 13  1  0
 13 14  1  0
 14 15  2  0
 14 16  1  0
  5  1  1  0
 16  2  1  0
  1 17  1  0
  1 18  1  0
  2 19  1  6
  3 20  1  6
  4 21  1  6
  6 22  1  0
  6 23  1  0
  7 24  1  0
  7 25  1  0
  8 26  1  0
  8 27  1  0
  9 28  1  0
  9 29  1  0
 12 30  1  0
 13 31  1  0
 16 32  1  0
M  END
$$$$
