serotonin
     RDKit          3D

 25 26  0  0  0  0  0  0  0  0999 V2000
    3.5203   -0.3782    0.4157 N   0  0  0  0  0  0  0  0  0  0  0  0
    2.6303    0.7823    0.3464 C   0  0  0  0  0  0  0  0  0  0  0  0
    1.7476    0.7970   -0.9106 C   0  0  0  0  0  0  0  0  0  0  0  0
    0.6225   -0.1912   -0.8718 C   0  0  0  0  0  0  0  0  0  0  0  0
    0.6413   -1.4724   -1.3881 C   0  0  0  0  0  0  0  0  0  0  0  0
   -0.5731   -2.0536   -1.1477 N   0  0  0  0  0  0  0  0  0  0  0  0
   -1.4016   -1.1731   -0.4930 C   0  0  0  0  0  0  0  0  0  0  0  0
   -2.7226   -1.3343   -0.0566 C   0  0  0  0  0  0  0  0  0  0  0  0
   -3.3247   -0.2545    0.5942 C   0  0  0  0  0  0  0  0  0  0  0  0
   -2.6262    0.9283    0.7951 C   0  0  0  0  0  0  0  0  0  0  0  0
   -3.2768    1.9424    1.4394 O   0  0  0  0  0  0  0  0  0  0  0  0
   -1.3082    1.0831    0.3584 C   0  0  0  0  0  0  0  0  0  0  0  0
   -0.6790    0.0062   -0.3032 C   0  0  0  0  0  0  0  0  0  0  0  0
    4.1256   -0.3999   -0.4026 H   0  0  0  0  0  0  0  0  0  0  0  0
    4.1262   -0.2937    1.2298 H   0  0  0  0  0  0  0  0  0  0  0  0
    3.2522    1.6847    0.3474 H   0  0  0  0  0  0  0  0  0  0  0  0
    2.0117    0.8119    1.2503 H   0  0  0  0  0  0  0  0  0  0  0  0
    1.3255    1.8035   -1.0268 H   0  0  0  0  0  0  0  0  0  0  0  0
    2.3622    0.6261   -1.8039 H   0  0  0  0  0  0  0  0  0  0  0  0
    1.4258   -2.0216   -1.8911 H   0  0  0  0  0  0  0  0  0  0  0  0
   -0.8292   -2.9954   -1.4081 H   0  0  0  0  0  0  0  0  0  0  0  0
   -3.2648   -2.2606   -0.2134 H   0  0  0  0  0  0  0  0  0  0  0  0
   -4.3487   -0.3410    0.9477 H   0  0  0  0  0  0  0  0  0  0  0  0
   -2.6701    2.6968    1.5125 H   0  0  0  0  0  0  0  0  0  0  0  0
   -0.7661    2.0074    0.5181 H   0  0  0  0  0  0  0  0  0  0  0  0
  1  2  1  0
  2  3  1  0
  3  4  1  0
  4  5  2  0
  5  6  1  0
  6  7  1  0
  7  8  2  0
  8  9  1  0
  9 10  2  0
 10 11  1  0
 10 12  1  0
 12 13  2  0
 13  4  1  0
 13  7  1  0
  1 14  1  0
  1 15  1  0
  2 16  1  0
  2 17  1  0
  3 18  1  0
  3 19  1  0
  5 20  1  0
  6 21  1  0
  8 22  1  0
  9 23  1  0
 11 24  1  0
 12 25  1  0
M  END
$$$$
