serotonin
     RDKit          3D

 13 14  0  0  0  0  0  0  0  0999 V2000
   98.4486  102.3941   95.1499 N   0  0  0  0  0  0  0  0  0  0  0  0
   98.1825  103.6756   95.7769 C   0  0  0  0  0  0  0  0  0  0  0  0
   98.8804  104.7098   94.9151 C   0  0  0  0  0  0  0  0  0  0  0  0
   98.5919  106.0984   95.3170 C   0  0  0  0  0  0  0  0  0  0  0  0
   99.4324  106.8191   96.1738 C   0  0  0  0  0  0  0  0  0  0  0  0
   98.9010  108.0563   96.3447 N   0  0  0  0  0  0  0  0  0  0  0  0
   97.7757  108.1269   95.6326 C   0  0  0  0  0  0  0  0  0  0  0  0
   96.9013  109.2001   95.5087 C   0  0  0  0  0  0  0  0  0  0  0  0
   95.7875  109.0060   94.6930 C   0  0  0  0  0  0  0  0  0  0  0  0
   95.5657  107.8112   94.0433 C   0  0  0  0  0  0  0  0  0  0  0  0
   94.4382  107.6912   93.2504 O   0  0  0  0  0  0  0  0  0  0  0  0
   96.4403  106.7482   94.1709 C   0  0  0  0  0  0  0  0  0  0  0  0
   97.5504  106.9320   94.9812 C   0  0  0  0  0  0  0  0  0  0  0  0
  2  1  1  1
  2  3  1  0
  3  4  1  1
  4  5  2  0
  5  6  1  0
  6  7  1  0
  7  8  2  0
  8  9  1  0
  9 10  2  0
 10 11  1  0
 10 12  1  0
 12 13  2  0
 13  4  1  0
 13  7  1  0
M  END
$$$$
