serotonin
     RDKit          3D

 13 14  0  0  0  0  0  0  0  0999 V2000
   78.4426   92.9492   89.9393 N   0  0  0  0  0  0  0  0  0  0  0  0
   77.6235   94.1415   89.8238 C   0  0  0  0  0  0  0  0  0  0  0  0
   78.5586   95.2418   89.3609 C   0  0  0  0  0  0  0  0  0  0  0  0
   77.8638   96.4962   89.0197 C   0  0  0  0  0  0  0  0  0  0  0  0
   77.7753   97.5694   89.9144 C   0  0  0  0  0  0  0  0  0  0  0  0
   77.0859   98.5692   89.3080 N   0  0  0  0  0  0  0  0  0  0  0  0
   76.7492   98.1587   88.0847 C   0  0  0  0  0  0  0  0  0  0  0  0
   76.0386   98.8495   87.1101 C   0  0  0  0  0  0  0  0  0  0  0  0
   75.8213   98.1816   85.9058 C   0  0  0  0  0  0  0  0  0  0  0  0
   76.2875   96.9024   85.6934 C   0  0  0  0  0  0  0  0  0  0  0  0
   76.0333   96.3022   84.4730 O   0  0  0  0  0  0  0  0  0  0  0  0
   76.9940   96.2216   86.6674 C   0  0  0  0  0  0  0  0  0  0  0  0
   77.2139   96.8780   87.8689 C   0  0  0  0  0  0  0  0  0  0  0  0
  2  1  1  1
  2  3  1  0
  3  4  1  1
  4  5  2  0
  5  6  1  0
  6  7  1  0
  7  8  2  0
  8  9  1  0
  9 10  2  0
 10 11  1  0
 10 12  1  0
 12 13  2  0
 13  4  1  0
 13  7  1  0
M  END
$$$$
