serotonin
     RDKit          3D

 13 14  0  0  0  0  0  0  0  0999 V2000
   94.8627  108.6220   94.6845 N   0  0  0  0  0  0  0  0  0  0  0  0
   95.8620  109.6690   94.5783 C   0  0  0  0  0  0  0  0  0  0  0  0
   95.5907  110.6173   95.7300 C   0  0  0  0  0  0  0  0  0  0  0  0
   96.3934  111.8523   95.6735 C   0  0  0  0  0  0  0  0  0  0  0  0
   97.7145  111.9075   96.1337 C   0  0  0  0  0  0  0  0  0  0  0  0
   98.1768  113.1690   95.9407 N   0  0  0  0  0  0  0  0  0  0  0  0
   97.2014  113.8879   95.3837 C   0  0  0  0  0  0  0  0  0  0  0  0
   97.2243  115.2266   95.0104 C   0  0  0  0  0  0  0  0  0  0  0  0
   96.0567  115.7361   94.4441 C   0  0  0  0  0  0  0  0  0  0  0  0
   94.9379  114.9520   94.2639 C   0  0  0  0  0  0  0  0  0  0  0  0
   93.8148  115.5265   93.6957 O   0  0  0  0  0  0  0  0  0  0  0  0
   94.9228  113.6210   94.6372 C   0  0  0  0  0  0  0  0  0  0  0  0
   96.0795  113.1060   95.2024 C   0  0  0  0  0  0  0  0  0  0  0  0
  2  1  1  1
  2  3  1  0
  3  4  1  1
  4  5  2  0
  5  6  1  0
  6  7  1  0
  7  8  2  0
  8  9  1  0
  9 10  2  0
 10 11  1  0
 10 12  1  0
 12 13  2  0
 13  4  1  0
 13  7  1  0
M  END
$$$$
