serotonin
     RDKit          3D

 13 14  0  0  0  0  0  0  0  0999 V2000
   97.5884  105.2810   94.6359 N   0  0  0  0  0  0  0  0  0  0  0  0
   97.0053  106.4774   95.2144 C   0  0  0  0  0  0  0  0  0  0  0  0
   96.6672  107.3797   94.0436 C   0  0  0  0  0  0  0  0  0  0  0  0
   96.1959  108.7158   94.4507 C   0  0  0  0  0  0  0  0  0  0  0  0
   94.8552  109.1027   94.3369 C   0  0  0  0  0  0  0  0  0  0  0  0
   94.7424  110.3752   94.7957 N   0  0  0  0  0  0  0  0  0  0  0  0
   95.9502  110.7847   95.1854 C   0  0  0  0  0  0  0  0  0  0  0  0
   96.3106  112.0159   95.7203 C   0  0  0  0  0  0  0  0  0  0  0  0
   97.6557  112.1848   96.0454 C   0  0  0  0  0  0  0  0  0  0  0  0
   98.5798  111.1821   95.8465 C   0  0  0  0  0  0  0  0  0  0  0  0
   99.8977  111.4219   96.1925 O   0  0  0  0  0  0  0  0  0  0  0  0
   98.2137  109.9597   95.3143 C   0  0  0  0  0  0  0  0  0  0  0  0
   96.8779  109.7833   94.9870 C   0  0  0  0  0  0  0  0  0  0  0  0
  2  1  1  1
  2  3  1  0
  3  4  1  1
  4  5  2  0
  5  6  1  0
  6  7  1  0
  7  8  2  0
  8  9  1  0
  9 10  2  0
 10 11  1  0
 10 12  1  0
 12 13  2  0
 13  4  1  0
 13  7  1  0
M  END
$$$$
