serotonin
     RDKit          3D

 13 14  0  0  0  0  0  0  0  0999 V2000
   93.6547  111.9754   94.6389 N   0  0  0  0  0  0  0  0  0  0  0  0
   93.9614  110.5644   94.7840 C   0  0  0  0  0  0  0  0  0  0  0  0
   95.4703  110.4804   94.9082 C   0  0  0  0  0  0  0  0  0  0  0  0
   95.9722  109.0997   95.0304 C   0  0  0  0  0  0  0  0  0  0  0  0
   95.1315  107.9857   94.9191 C   0  0  0  0  0  0  0  0  0  0  0  0
   95.8879  106.8689   95.0709 N   0  0  0  0  0  0  0  0  0  0  0  0
   97.1513  107.2469   95.2692 C   0  0  0  0  0  0  0  0  0  0  0  0
   98.2680  106.4447   95.4728 C   0  0  0  0  0  0  0  0  0  0  0  0
   99.4833  107.1026   95.6565 C   0  0  0  0  0  0  0  0  0  0  0  0
   99.5720  108.4775   95.6370 C   0  0  0  0  0  0  0  0  0  0  0  0
  100.8121  109.0610   95.8271 O   0  0  0  0  0  0  0  0  0  0  0  0
   98.4569  109.2690   95.4334 C   0  0  0  0  0  0  0  0  0  0  0  0
   97.2436  108.6231   95.2508 C   0  0  0  0  0  0  0  0  0  0  0  0
  2  1  1  1
  2  3  1  0
  3  4  1  1
  4  5  2  0
  5  6  1  0
  6  7  1  0
  7  8  2  0
  8  9  1  0
  9 10  2  0
 10 11  1  0
 10 12  1  0
 12 13  2  0
 13  4  1  0
 13  7  1  0
M  END
$$$$
