serotonin
     RDKit          3D

 13 14  0  0  0  0  0  0  0  0999 V2000
   94.8479  109.8795   96.6017 N   0  0  0  0  0  0  0  0  0  0  0  0
   93.6872  110.6620   96.9843 C   0  0  0  0  0  0  0  0  0  0  0  0
   93.7686  111.9433   96.1773 C   0  0  0  0  0  0  0  0  0  0  0  0
   92.6507  112.8693   96.4339 C   0  0  0  0  0  0  0  0  0  0  0  0
   91.4140  112.7455   95.7896 C   0  0  0  0  0  0  0  0  0  0  0  0
   90.6019  113.7352   96.2404 N   0  0  0  0  0  0  0  0  0  0  0  0
   91.2829  114.4581   97.1303 C   0  0  0  0  0  0  0  0  0  0  0  0
   90.8530  115.5685   97.8474 C   0  0  0  0  0  0  0  0  0  0  0  0
   91.7755  116.1420   98.7212 C   0  0  0  0  0  0  0  0  0  0  0  0
   93.0480  115.6334   98.8661 C   0  0  0  0  0  0  0  0  0  0  0  0
   93.9097  116.2554   99.7520 O   0  0  0  0  0  0  0  0  0  0  0  0
   93.4685  114.5282   98.1498 C   0  0  0  0  0  0  0  0  0  0  0  0
   92.5577  113.9520   97.2774 C   0  0  0  0  0  0  0  0  0  0  0  0
  2  1  1  1
  2  3  1  0
  3  4  1  1
  4  5  2  0
  5  6  1  0
  6  7  1  0
  7  8  2  0
  8  9  1  0
  9 10  2  0
 10 11  1  0
 10 12  1  0
 12 13  2  0
 13  4  1  0
 13  7  1  0
M  END
$$$$
