serotonin
     RDKit          3D

 13 14  0  0  0  0  0  0  0  0999 V2000
   96.3344  106.9033   94.8093 N   0  0  0  0  0  0  0  0  0  0  0  0
   96.6014  108.3076   94.5590 C   0  0  0  0  0  0  0  0  0  0  0  0
   96.1605  109.0414   95.8106 C   0  0  0  0  0  0  0  0  0  0  0  0
   96.1960  110.5086   95.6728 C   0  0  0  0  0  0  0  0  0  0  0  0
   97.2160  111.2878   96.2317 C   0  0  0  0  0  0  0  0  0  0  0  0
   96.9698  112.5874   95.9271 N   0  0  0  0  0  0  0  0  0  0  0  0
   95.8481  112.6400   95.2079 C   0  0  0  0  0  0  0  0  0  0  0  0
   95.2163  113.7595   94.6791 C   0  0  0  0  0  0  0  0  0  0  0  0
   94.0439  113.5322   93.9598 C   0  0  0  0  0  0  0  0  0  0  0  0
   93.5381  112.2627   93.7827 C   0  0  0  0  0  0  0  0  0  0  0  0
   92.3693  112.1139   93.0574 O   0  0  0  0  0  0  0  0  0  0  0  0
   94.1724  111.1538   94.3112 C   0  0  0  0  0  0  0  0  0  0  0  0
   95.3387  111.3706   95.0291 C   0  0  0  0  0  0  0  0  0  0  0  0
  2  1  1  1
  2  3  1  0
  3  4  1  1
  4  5  2  0
  5  6  1  0
  6  7  1  0
  7  8  2  0
  8  9  1  0
  9 10  2  0
 10 11  1  0
 10 12  1  0
 12 13  2  0
 13  4  1  0
 13  7  1  0
M  END
$$$$
