serotonin
     RDKit          3D

 13 14  0  0  0  0  0  0  0  0999 V2000
   77.0999   89.9544   85.6123 N   0  0  0  0  0  0  0  0  0  0  0  0
   77.3216   91.3660   85.3590 C   0  0  0  0  0  0  0  0  0  0  0  0
   77.3389   92.0323   86.7211 C   0  0  0  0  0  0  0  0  0  0  0  0
   77.5466   93.4903   86.6575 C   0  0  0  0  0  0  0  0  0  0  0  0
   78.2815   94.1841   87.6263 C   0  0  0  0  0  0  0  0  0  0  0  0
   78.2953   95.4979   87.2854 N   0  0  0  0  0  0  0  0  0  0  0  0
   77.6044   95.6405   86.1538 C   0  0  0  0  0  0  0  0  0  0  0  0
   77.3550   96.8059   85.4385 C   0  0  0  0  0  0  0  0  0  0  0  0
   76.5965   96.6739   84.2763 C   0  0  0  0  0  0  0  0  0  0  0  0
   76.1189   95.4506   83.8588 C   0  0  0  0  0  0  0  0  0  0  0  0
   75.3724   95.3964   82.6951 O   0  0  0  0  0  0  0  0  0  0  0  0
   76.3714   94.2955   84.5753 C   0  0  0  0  0  0  0  0  0  0  0  0
   77.1243   94.4176   85.7333 C   0  0  0  0  0  0  0  0  0  0  0  0
  2  1  1  1
  2  3  1  0
  3  4  1  1
  4  5  2  0
  5  6  1  0
  6  7  1  0
  7  8  2  0
  8  9  1  0
  9 10  2  0
 10 11  1  0
 10 12  1  0
 12 13  2  0
 13  4  1  0
 13  7  1  0
M  END
$$$$
