serotonin
     RDKit          3D

 13 14  0  0  0  0  0  0  0  0999 V2000
   98.3753  102.9672   94.6499 N   0  0  0  0  0  0  0  0  0  0  0  0
   98.7395  104.3629   94.8092 C   0  0  0  0  0  0  0  0  0  0  0  0
   98.1076  104.8083   96.1136 C   0  0  0  0  0  0  0  0  0  0  0  0
   98.2328  106.2561   96.3610 C   0  0  0  0  0  0  0  0  0  0  0  0
   99.2365  106.7915   97.1771 C   0  0  0  0  0  0  0  0  0  0  0  0
   99.0881  108.1405   97.1994 N   0  0  0  0  0  0  0  0  0  0  0  0
   98.0418  108.4558   96.4350 C   0  0  0  0  0  0  0  0  0  0  0  0
   97.5212  109.7161   96.1656 C   0  0  0  0  0  0  0  0  0  0  0  0
   96.4098  109.7651   95.3254 C   0  0  0  0  0  0  0  0  0  0  0  0
   95.8565  108.6223   94.7900 C   0  0  0  0  0  0  0  0  0  0  0  0
   94.7533  108.7483   93.9644 O   0  0  0  0  0  0  0  0  0  0  0  0
   96.3801  107.3721   95.0620 C   0  0  0  0  0  0  0  0  0  0  0  0
   97.4851  107.3138   95.8977 C   0  0  0  0  0  0  0  0  0  0  0  0
  2  1  1  1
  2  3  1  0
  3  4  1  1
  4  5  2  0
  5  6  1  0
  6  7  1  0
  7  8  2  0
  8  9  1  0
  9 10  2  0
 10 11  1  0
 10 12  1  0
 12 13  2  0
 13  4  1  0
 13  7  1  0
M  END
$$$$
