serotonin
     RDKit          3D

 13 14  0  0  0  0  0  0  0  0999 V2000
   94.8887  109.0472   95.0958 N   0  0  0  0  0  0  0  0  0  0  0  0
   95.2332  110.3122   95.7180 C   0  0  0  0  0  0  0  0  0  0  0  0
   95.3902  111.3027   94.5806 C   0  0  0  0  0  0  0  0  0  0  0  0
   95.9350  112.6040   95.0079 C   0  0  0  0  0  0  0  0  0  0  0  0
   97.2799  112.7733   95.3579 C   0  0  0  0  0  0  0  0  0  0  0  0
   97.4679  114.0742   95.6964 N   0  0  0  0  0  0  0  0  0  0  0  0
   96.3019  114.7089   95.5694 C   0  0  0  0  0  0  0  0  0  0  0  0
   96.0208  116.0490   95.8082 C   0  0  0  0  0  0  0  0  0  0  0  0
   94.7050  116.4576   95.5955 C   0  0  0  0  0  0  0  0  0  0  0  0
   93.7337  115.5775   95.1703 C   0  0  0  0  0  0  0  0  0  0  0  0
   92.4489  116.0547   94.9809 O   0  0  0  0  0  0  0  0  0  0  0  0
   94.0209  114.2459   94.9343 C   0  0  0  0  0  0  0  0  0  0  0  0
   95.3270  113.8304   95.1444 C   0  0  0  0  0  0  0  0  0  0  0  0
  2  1  1  1
  2  3  1  0
  3  4  1  1
  4  5  2  0
  5  6  1  0
  6  7  1  0
  7  8  2  0
  8  9  1  0
  9 10  2  0
 10 11  1  0
 10 12  1  0
 12 13  2  0
 13  4  1  0
 13  7  1  0
M  END
$$$$
