imatinib
     RDKit          3D

 37 41  0  0  0  0  0  0  0  0999 V2000
   24.1710   25.8649   45.4270 C   0  0  0  0  0  0  0  0  0  0  0  0
   24.0681   26.0122   43.9618 C   0  0  0  0  0  0  0  0  0  0  0  0
   22.9080   26.5279   43.4294 C   0  0  0  0  0  0  0  0  0  0  0  0
   22.7442   26.6916   42.0852 C   0  0  0  0  0  0  0  0  0  0  0  0
   23.7851   26.3222   41.2616 C   0  0  0  0  0  0  0  0  0  0  0  0
   23.6676   26.4724   39.8367 N   0  0  0  0  0  0  0  0  0  0  0  0
   24.7062   25.9346   39.0289 C   0  0  0  0  0  0  0  0  0  0  0  0
   25.7508   25.5117   39.5862 O   0  0  0  0  0  0  0  0  0  0  0  0
   24.6274   25.8447   37.5761 C   0  0  0  0  0  0  0  0  0  0  0  0
   23.4941   26.3325   36.9678 C   0  0  0  0  0  0  0  0  0  0  0  0
   23.3918   26.2620   35.5799 C   0  0  0  0  0  0  0  0  0  0  0  0
   24.4000   25.7146   34.8011 C   0  0  0  0  0  0  0  0  0  0  0  0
   24.1787   25.6973   33.3382 C   0  0  0  0  0  0  0  0  0  0  0  0
   24.0975   27.0100   32.8252 N   0  0  0  0  0  0  0  0  0  0  0  0
   24.9211   27.9814   33.4670 C   0  0  0  0  0  0  0  0  0  0  0  0
   24.7602   29.3700   32.9173 C   0  0  0  0  0  0  0  0  0  0  0  0
   24.0850   29.3978   31.6530 N   0  0  0  0  0  0  0  0  0  0  0  0
   24.8869   28.8480   30.5977 C   0  0  0  0  0  0  0  0  0  0  0  0
   22.7765   28.7952   31.7734 C   0  0  0  0  0  0  0  0  0  0  0  0
   22.8061   27.4536   32.4360 C   0  0  0  0  0  0  0  0  0  0  0  0
   25.5187   25.2347   35.4228 C   0  0  0  0  0  0  0  0  0  0  0  0
   25.6253   25.3022   36.7984 C   0  0  0  0  0  0  0  0  0  0  0  0
   24.9585   25.8002   41.8070 C   0  0  0  0  0  0  0  0  0  0  0  0
   25.1415   25.6281   43.1564 C   0  0  0  0  0  0  0  0  0  0  0  0
   26.3057   25.1048   43.7564 N   0  0  0  0  0  0  0  0  0  0  0  0
   27.4479   25.8217   44.1599 C   0  0  0  0  0  0  0  0  0  0  0  0
   27.7170   27.0969   43.8965 N   0  0  0  0  0  0  0  0  0  0  0  0
   28.8120   27.7693   44.2873 C   0  0  0  0  0  0  0  0  0  0  0  0
   29.7409   27.0735   45.0289 C   0  0  0  0  0  0  0  0  0  0  0  0
   29.5176   25.7496   45.3335 C   0  0  0  0  0  0  0  0  0  0  0  0
   28.3924   25.1626   44.8983 N   0  0  0  0  0  0  0  0  0  0  0  0
   30.4796   24.9854   46.1157 C   0  0  0  0  0  0  0  0  0  0  0  0
   31.6698   25.4788   46.5720 C   0  0  0  0  0  0  0  0  0  0  0  0
   32.5304   24.6975   47.3070 C   0  0  0  0  0  0  0  0  0  0  0  0
   32.2143   23.3938   47.6030 C   0  0  0  0  0  0  0  0  0  0  0  0
   31.0487   22.9029   47.1588 N   0  0  0  0  0  0  0  0  0  0  0  0
   30.1937   23.6580   46.4362 C   0  0  0  0  0  0  0  0  0  0  0  0
  1  2  1  1
  2  3  2  0
  3  4  1  0
  4  5  2  0
  5  6  1  0
  6  7  1  0
  7  8  2  0
  7  9  1  0
  9 10  2  0
 10 11  1  0
 11 12  2  0
 12 13  1  0
 13 14  1  1
 15 14  1  1
 15 16  1  0
 16 17  1  1
 18 17  1  6
 19 17  1  6
 19 20  1  0
 12 21  1  0
 21 22  2  0
  5 23  1  0
 23 24  2  0
 24 25  1  0
 25 26  1  0
 26 27  2  0
 27 28  1  0
 28 29  2  0
 29 30  1  0
 30 31  2  0
 30 32  1  0
 32 33  2  0
 33 34  1  0
 34 35  2  0
 35 36  1  0
 36 37  2  0
 24  2  1  0
 22  9  1  0
 20 14  1  1
 31 26  1  0
 37 32  1  0
M  END
$$$$
