imatinib
     RDKit          3D

 37 41  0  0  0  0  0  0  0  0999 V2000
   24.1866   26.2254   45.4766 C   0  0  0  0  0  0  0  0  0  0  0  0
   23.9399   26.1475   44.0233 C   0  0  0  0  0  0  0  0  0  0  0  0
   22.8086   26.7427   43.5122 C   0  0  0  0  0  0  0  0  0  0  0  0
   22.5178   26.7098   42.1800 C   0  0  0  0  0  0  0  0  0  0  0  0
   23.3987   26.0559   41.3463 C   0  0  0  0  0  0  0  0  0  0  0  0
   23.1425   25.9896   39.9333 N   0  0  0  0  0  0  0  0  0  0  0  0
   24.2405   25.7048   39.0766 C   0  0  0  0  0  0  0  0  0  0  0  0
   25.3459   25.3957   39.5896 O   0  0  0  0  0  0  0  0  0  0  0  0
   24.1559   25.7512   37.6220 C   0  0  0  0  0  0  0  0  0  0  0  0
   25.2311   25.2789   36.9056 C   0  0  0  0  0  0  0  0  0  0  0  0
   25.1776   25.3088   35.5135 C   0  0  0  0  0  0  0  0  0  0  0  0
   24.0720   25.8007   34.8364 C   0  0  0  0  0  0  0  0  0  0  0  0
   24.1303   25.7786   33.3581 C   0  0  0  0  0  0  0  0  0  0  0  0
   24.0045   27.0815   32.8292 N   0  0  0  0  0  0  0  0  0  0  0  0
   24.5663   28.1298   33.6162 C   0  0  0  0  0  0  0  0  0  0  0  0
   24.3618   29.4996   33.0348 C   0  0  0  0  0  0  0  0  0  0  0  0
   23.9554   29.4704   31.6602 N   0  0  0  0  0  0  0  0  0  0  0  0
   25.0101   29.0313   30.7921 C   0  0  0  0  0  0  0  0  0  0  0  0
   22.7268   28.7216   31.5196 C   0  0  0  0  0  0  0  0  0  0  0  0
   22.7756   27.3820   32.1848 C   0  0  0  0  0  0  0  0  0  0  0  0
   23.0131   26.2658   35.5648 C   0  0  0  0  0  0  0  0  0  0  0  0
   23.0608   26.2386   36.9451 C   0  0  0  0  0  0  0  0  0  0  0  0
   24.5437   25.4545   41.8700 C   0  0  0  0  0  0  0  0  0  0  0  0
   24.8527   25.4772   43.2071 C   0  0  0  0  0  0  0  0  0  0  0  0
   25.9946   24.8849   43.7855 N   0  0  0  0  0  0  0  0  0  0  0  0
   27.2200   25.5127   44.0781 C   0  0  0  0  0  0  0  0  0  0  0  0
   27.6698   26.6523   43.5612 N   0  0  0  0  0  0  0  0  0  0  0  0
   28.8423   27.2406   43.8488 C   0  0  0  0  0  0  0  0  0  0  0  0
   29.6527   26.6047   44.7630 C   0  0  0  0  0  0  0  0  0  0  0  0
   29.2409   25.4209   45.3325 C   0  0  0  0  0  0  0  0  0  0  0  0
   28.0511   24.9095   44.9821 N   0  0  0  0  0  0  0  0  0  0  0  0
   30.0738   24.7233   46.3025 C   0  0  0  0  0  0  0  0  0  0  0  0
   31.3876   25.0136   46.5428 C   0  0  0  0  0  0  0  0  0  0  0  0
   32.1137   24.3114   47.4761 C   0  0  0  0  0  0  0  0  0  0  0  0
   31.5338   23.2944   48.1949 C   0  0  0  0  0  0  0  0  0  0  0  0
   30.2456   23.0038   47.9647 N   0  0  0  0  0  0  0  0  0  0  0  0
   29.5203   23.6846   47.0516 C   0  0  0  0  0  0  0  0  0  0  0  0
  1  2  1  1
  2  3  2  0
  3  4  1  0
  4  5  2  0
  5  6  1  0
  6  7  1  0
  7  8  2  0
  7  9  1  0
  9 10  2  0
 10 11  1  0
 11 12  2  0
 12 13  1  0
 13 14  1  1
 15 14  1  1
 15 16  1  0
 16 17  1  1
 18 17  1  6
 19 17  1  6
 19 20  1  0
 12 21  1  0
 21 22  2  0
  5 23  1  0
 23 24  2  0
 24 25  1  0
 25 26  1  0
 26 27  2  0
 27 28  1  0
 28 29  2  0
 29 30  1  0
 30 31  2  0
 30 32  1  0
 32 33  2  0
 33 34  1  0
 34 35  2  0
 35 36  1  0
 36 37  2  0
 24  2  1  0
 22  9  1  0
 20 14  1  1
 31 26  1  0
 37 32  1  0
M  END
$$$$
