imatinib
     RDKit          3D

 37 41  0  0  0  0  0  0  0  0999 V2000
   24.6358   25.9618   45.2891 C   0  0  0  0  0  0  0  0  0  0  0  0
   24.4506   26.2315   43.8497 C   0  0  0  0  0  0  0  0  0  0  0  0
   23.1700   26.3595   43.3608 C   0  0  0  0  0  0  0  0  0  0  0  0
   22.9250   26.6088   42.0424 C   0  0  0  0  0  0  0  0  0  0  0  0
   24.0083   26.7313   41.1998 C   0  0  0  0  0  0  0  0  0  0  0  0
   23.8093   26.9938   39.8004 N   0  0  0  0  0  0  0  0  0  0  0  0
   24.8406   26.6040   38.9031 C   0  0  0  0  0  0  0  0  0  0  0  0
   25.9880   26.3722   39.3617 O   0  0  0  0  0  0  0  0  0  0  0  0
   24.6404   26.4563   37.4668 C   0  0  0  0  0  0  0  0  0  0  0  0
   25.7321   26.1144   36.7028 C   0  0  0  0  0  0  0  0  0  0  0  0
   25.5702   25.9641   35.3270 C   0  0  0  0  0  0  0  0  0  0  0  0
   24.3412   26.1499   34.7125 C   0  0  0  0  0  0  0  0  0  0  0  0
   24.2925   25.9597   33.2460 C   0  0  0  0  0  0  0  0  0  0  0  0
   23.7513   27.0969   32.6081 N   0  0  0  0  0  0  0  0  0  0  0  0
   23.9577   28.3414   33.2733 C   0  0  0  0  0  0  0  0  0  0  0  0
   23.3199   29.5115   32.5804 C   0  0  0  0  0  0  0  0  0  0  0  0
   22.9285   29.2198   31.2324 N   0  0  0  0  0  0  0  0  0  0  0  0
   24.0583   29.0542   30.3635 C   0  0  0  0  0  0  0  0  0  0  0  0
   22.0018   28.1105   31.2115 C   0  0  0  0  0  0  0  0  0  0  0  0
   22.4835   26.9277   31.9917 C   0  0  0  0  0  0  0  0  0  0  0  0
   23.2677   26.4893   35.4875 C   0  0  0  0  0  0  0  0  0  0  0  0
   23.4225   26.6397   36.8519 C   0  0  0  0  0  0  0  0  0  0  0  0
   25.3039   26.6006   41.7010 C   0  0  0  0  0  0  0  0  0  0  0  0
   25.5699   26.3497   43.0239 C   0  0  0  0  0  0  0  0  0  0  0  0
   26.8586   26.2082   43.5791 N   0  0  0  0  0  0  0  0  0  0  0  0
   27.4773   25.0138   43.9939 C   0  0  0  0  0  0  0  0  0  0  0  0
   27.0313   23.7779   43.7896 N   0  0  0  0  0  0  0  0  0  0  0  0
   27.6316   22.6458   44.1916 C   0  0  0  0  0  0  0  0  0  0  0  0
   28.8180   22.7778   44.8787 C   0  0  0  0  0  0  0  0  0  0  0  0
   29.3302   24.0325   45.1209 C   0  0  0  0  0  0  0  0  0  0  0  0
   28.6578   25.1062   44.6793 N   0  0  0  0  0  0  0  0  0  0  0  0
   30.5823   24.2068   45.8442 C   0  0  0  0  0  0  0  0  0  0  0  0
   31.2159   25.4059   46.0135 C   0  0  0  0  0  0  0  0  0  0  0  0
   32.3982   25.4953   46.7103 C   0  0  0  0  0  0  0  0  0  0  0  0
   32.9759   24.3753   47.2572 C   0  0  0  0  0  0  0  0  0  0  0  0
   32.3603   23.1956   47.0953 N   0  0  0  0  0  0  0  0  0  0  0  0
   31.1991   23.0925   46.4137 C   0  0  0  0  0  0  0  0  0  0  0  0
  1  2  1  1
  2  3  2  0
  3  4  1  0
  4  5  2  0
  5  6  1  0
  6  7  1  0
  7  8  2  0
  7  9  1  0
  9 10  2  0
 10 11  1  0
 11 12  2  0
 12 13  1  0
 13 14  1  1
 15 14  1  1
 15 16  1  0
 16 17  1  1
 18 17  1  6
 19 17  1  6
 19 20  1  0
 12 21  1  0
 21 22  2  0
  5 23  1  0
 23 24  2  0
 24 25  1  0
 25 26  1  0
 26 27  2  0
 27 28  1  0
 28 29  2  0
 29 30  1  0
 30 31  2  0
 30 32  1  0
 32 33  2  0
 33 34  1  0
 34 35  2  0
 35 36  1  0
 36 37  2  0
 24  2  1  0
 22  9  1  0
 20 14  1  1
 31 26  1  0
 37 32  1  0
M  END
$$$$
