imatinib
     RDKit          3D

 37 41  0  0  0  0  0  0  0  0999 V2000
   24.3235   26.1469   45.3857 C   0  0  0  0  0  0  0  0  0  0  0  0
   24.1790   26.2891   43.9235 C   0  0  0  0  0  0  0  0  0  0  0  0
   23.0508   26.9027   43.4276 C   0  0  0  0  0  0  0  0  0  0  0  0
   22.8517   27.0679   42.0884 C   0  0  0  0  0  0  0  0  0  0  0  0
   23.8232   26.5980   41.2318 C   0  0  0  0  0  0  0  0  0  0  0  0
   23.6659   26.7448   39.8104 N   0  0  0  0  0  0  0  0  0  0  0  0
   24.8010   26.4954   38.9919 C   0  0  0  0  0  0  0  0  0  0  0  0
   25.9348   26.4292   39.5312 O   0  0  0  0  0  0  0  0  0  0  0  0
   24.7236   26.3100   37.5481 C   0  0  0  0  0  0  0  0  0  0  0  0
   23.4782   26.3542   36.9656 C   0  0  0  0  0  0  0  0  0  0  0  0
   23.3736   26.1824   35.5868 C   0  0  0  0  0  0  0  0  0  0  0  0
   24.4894   25.9689   34.7917 C   0  0  0  0  0  0  0  0  0  0  0  0
   24.2531   25.8031   33.3405 C   0  0  0  0  0  0  0  0  0  0  0  0
   23.6575   26.9593   32.7914 N   0  0  0  0  0  0  0  0  0  0  0  0
   23.7599   28.1453   33.5768 C   0  0  0  0  0  0  0  0  0  0  0  0
   23.0675   29.3334   32.9725 C   0  0  0  0  0  0  0  0  0  0  0  0
   22.7385   29.1473   31.5896 N   0  0  0  0  0  0  0  0  0  0  0  0
   23.9033   29.1370   30.7518 C   0  0  0  0  0  0  0  0  0  0  0  0
   21.8888   27.9885   31.4310 C   0  0  0  0  0  0  0  0  0  0  0  0
   22.4236   26.7696   32.1152 C   0  0  0  0  0  0  0  0  0  0  0  0
   25.7187   25.9280   35.3878 C   0  0  0  0  0  0  0  0  0  0  0  0
   25.8281   26.0977   36.7544 C   0  0  0  0  0  0  0  0  0  0  0  0
   24.9646   25.9770   41.7403 C   0  0  0  0  0  0  0  0  0  0  0  0
   25.1822   25.8018   43.0841 C   0  0  0  0  0  0  0  0  0  0  0  0
   26.3163   25.1809   43.6476 N   0  0  0  0  0  0  0  0  0  0  0  0
   27.4653   25.8147   44.1570 C   0  0  0  0  0  0  0  0  0  0  0  0
   27.8462   27.0679   43.9283 N   0  0  0  0  0  0  0  0  0  0  0  0
   28.9462   27.6607   44.4206 C   0  0  0  0  0  0  0  0  0  0  0  0
   29.7534   26.8999   45.2372 C   0  0  0  0  0  0  0  0  0  0  0  0
   29.4109   25.5949   45.5107 C   0  0  0  0  0  0  0  0  0  0  0  0
   28.2909   25.0895   44.9721 N   0  0  0  0  0  0  0  0  0  0  0  0
   30.2424   24.7636   46.3702 C   0  0  0  0  0  0  0  0  0  0  0  0
   29.8643   23.5489   46.8700 C   0  0  0  0  0  0  0  0  0  0  0  0
   30.7039   22.8175   47.6770 C   0  0  0  0  0  0  0  0  0  0  0  0
   31.9513   23.2916   48.0035 C   0  0  0  0  0  0  0  0  0  0  0  0
   32.3292   24.4822   47.5171 N   0  0  0  0  0  0  0  0  0  0  0  0
   31.5156   25.2115   46.7236 C   0  0  0  0  0  0  0  0  0  0  0  0
  1  2  1  1
  2  3  2  0
  3  4  1  0
  4  5  2  0
  5  6  1  0
  6  7  1  0
  7  8  2  0
  7  9  1  0
  9 10  2  0
 10 11  1  0
 11 12  2  0
 12 13  1  0
 13 14  1  1
 15 14  1  1
 15 16  1  0
 16 17  1  1
 18 17  1  6
 19 17  1  6
 19 20  1  0
 12 21  1  0
 21 22  2  0
  5 23  1  0
 23 24  2  0
 24 25  1  0
 25 26  1  0
 26 27  2  0
 27 28  1  0
 28 29  2  0
 29 30  1  0
 30 31  2  0
 30 32  1  0
 32 33  2  0
 33 34  1  0
 34 35  2  0
 35 36  1  0
 36 37  2  0
 24  2  1  0
 22  9  1  0
 20 14  1  1
 31 26  1  0
 37 32  1  0
M  END
$$$$
