imatinib
     RDKit          3D

 37 41  0  0  0  0  0  0  0  0999 V2000
   24.3081   26.5414   45.4072 C   0  0  0  0  0  0  0  0  0  0  0  0
   24.0692   26.2340   43.9833 C   0  0  0  0  0  0  0  0  0  0  0  0
   22.9196   26.7042   43.3896 C   0  0  0  0  0  0  0  0  0  0  0  0
   22.6348   26.4582   42.0785 C   0  0  0  0  0  0  0  0  0  0  0  0
   23.5407   25.7160   41.3528 C   0  0  0  0  0  0  0  0  0  0  0  0
   23.2918   25.4259   39.9669 N   0  0  0  0  0  0  0  0  0  0  0  0
   24.3067   25.7621   39.0301 C   0  0  0  0  0  0  0  0  0  0  0  0
   25.4357   26.1123   39.4585 O   0  0  0  0  0  0  0  0  0  0  0  0
   24.1102   25.7231   37.5862 C   0  0  0  0  0  0  0  0  0  0  0  0
   25.0765   25.1039   36.8278 C   0  0  0  0  0  0  0  0  0  0  0  0
   24.9143   25.0495   35.4449 C   0  0  0  0  0  0  0  0  0  0  0  0
   23.8076   25.6016   34.8180 C   0  0  0  0  0  0  0  0  0  0  0  0
   23.7446   25.4791   33.3448 C   0  0  0  0  0  0  0  0  0  0  0  0
   23.9257   26.7353   32.7264 N   0  0  0  0  0  0  0  0  0  0  0  0
   23.7116   26.7722   31.3170 C   0  0  0  0  0  0  0  0  0  0  0  0
   23.9658   28.1182   30.7009 C   0  0  0  0  0  0  0  0  0  0  0  0
   24.0372   29.1735   31.6687 N   0  0  0  0  0  0  0  0  0  0  0  0
   22.7606   29.4535   32.2609 C   0  0  0  0  0  0  0  0  0  0  0  0
   25.0840   28.9002   32.6276 C   0  0  0  0  0  0  0  0  0  0  0  0
   25.0032   27.5237   33.2094 C   0  0  0  0  0  0  0  0  0  0  0  0
   22.8577   26.2128   35.5876 C   0  0  0  0  0  0  0  0  0  0  0  0
   23.0134   26.2697   36.9590 C   0  0  0  0  0  0  0  0  0  0  0  0
   24.7041   25.2420   41.9599 C   0  0  0  0  0  0  0  0  0  0  0  0
   25.0076   25.4793   43.2773 C   0  0  0  0  0  0  0  0  0  0  0  0
   26.1675   25.0225   43.9371 N   0  0  0  0  0  0  0  0  0  0  0  0
   27.2869   25.7885   44.3131 C   0  0  0  0  0  0  0  0  0  0  0  0
   27.4833   27.0798   44.0642 N   0  0  0  0  0  0  0  0  0  0  0  0
   28.5574   27.7993   44.4285 C   0  0  0  0  0  0  0  0  0  0  0  0
   29.5457   27.1381   45.1235 C   0  0  0  0  0  0  0  0  0  0  0  0
   29.3989   25.7998   45.4110 C   0  0  0  0  0  0  0  0  0  0  0  0
   28.2890   25.1649   45.0051 N   0  0  0  0  0  0  0  0  0  0  0  0
   30.4252   25.0713   46.1442 C   0  0  0  0  0  0  0  0  0  0  0  0
   31.6089   25.6134   46.5601 C   0  0  0  0  0  0  0  0  0  0  0  0
   32.5329   24.8638   47.2499 C   0  0  0  0  0  0  0  0  0  0  0  0
   32.2884   23.5435   47.5401 C   0  0  0  0  0  0  0  0  0  0  0  0
   31.1295   23.0049   47.1354 N   0  0  0  0  0  0  0  0  0  0  0  0
   30.2130   23.7285   46.4574 C   0  0  0  0  0  0  0  0  0  0  0  0
  1  2  1  1
  2  3  2  0
  3  4  1  0
  4  5  2  0
  5  6  1  0
  6  7  1  0
  7  8  2  0
  7  9  1  0
  9 10  2  0
 10 11  1  0
 11 12  2  0
 12 13  1  0
 13 14  1  1
 15 14  1  1
 15 16  1  0
 16 17  1  1
 18 17  1  6
 19 17  1  6
 19 20  1  0
 12 21  1  0
 21 22  2  0
  5 23  1  0
 23 24  2  0
 24 25  1  0
 25 26  1  0
 26 27  2  0
 27 28  1  0
 28 29  2  0
 29 30  1  0
 30 31  2  0
 30 32  1  0
 32 33  2  0
 33 34  1  0
 34 35  2  0
 35 36  1  0
 36 37  2  0
 24  2  1  0
 22  9  1  0
 20 14  1  1
 31 26  1  0
 37 32  1  0
M  END
$$$$
