imatinib
     RDKit          3D

 37 41  0  0  0  0  0  0  0  0999 V2000
   24.4888   25.9916   45.5410 C   0  0  0  0  0  0  0  0  0  0  0  0
   24.2744   26.1908   44.0942 C   0  0  0  0  0  0  0  0  0  0  0  0
   23.1303   26.8335   43.6781 C   0  0  0  0  0  0  0  0  0  0  0  0
   22.8677   27.0516   42.3575 C   0  0  0  0  0  0  0  0  0  0  0  0
   23.7907   26.6056   41.4369 C   0  0  0  0  0  0  0  0  0  0  0  0
   23.5656   26.8080   40.0315 N   0  0  0  0  0  0  0  0  0  0  0  0
   24.6169   26.4636   39.1388 C   0  0  0  0  0  0  0  0  0  0  0  0
   25.7508   26.1963   39.6115 O   0  0  0  0  0  0  0  0  0  0  0  0
   24.4524   26.4022   37.6917 C   0  0  0  0  0  0  0  0  0  0  0  0
   25.5464   26.0397   36.9406 C   0  0  0  0  0  0  0  0  0  0  0  0
   25.4182   25.9703   35.5548 C   0  0  0  0  0  0  0  0  0  0  0  0
   24.2202   26.2565   34.9179 C   0  0  0  0  0  0  0  0  0  0  0  0
   24.2055   26.1458   33.4425 C   0  0  0  0  0  0  0  0  0  0  0  0
   23.7298   27.3369   32.8525 N   0  0  0  0  0  0  0  0  0  0  0  0
   23.9469   28.5319   33.5998 C   0  0  0  0  0  0  0  0  0  0  0  0
   23.3782   29.7624   32.9529 C   0  0  0  0  0  0  0  0  0  0  0  0
   23.0370   29.5647   31.5746 N   0  0  0  0  0  0  0  0  0  0  0  0
   24.1978   29.4114   30.7452 C   0  0  0  0  0  0  0  0  0  0  0  0
   22.0767   28.4915   31.4479 C   0  0  0  0  0  0  0  0  0  0  0  0
   22.4854   27.2486   32.1746 C   0  0  0  0  0  0  0  0  0  0  0  0
   23.1440   26.6150   35.6803 C   0  0  0  0  0  0  0  0  0  0  0  0
   23.2655   26.6854   37.0546 C   0  0  0  0  0  0  0  0  0  0  0  0
   24.9485   25.9548   41.8646 C   0  0  0  0  0  0  0  0  0  0  0  0
   25.2297   25.7264   43.1884 C   0  0  0  0  0  0  0  0  0  0  0  0
   26.3829   25.0738   43.6714 N   0  0  0  0  0  0  0  0  0  0  0  0
   27.5403   25.6762   44.1995 C   0  0  0  0  0  0  0  0  0  0  0  0
   27.8800   26.9583   44.1047 N   0  0  0  0  0  0  0  0  0  0  0  0
   28.9887   27.5206   44.6130 C   0  0  0  0  0  0  0  0  0  0  0  0
   29.8526   26.6926   45.2950 C   0  0  0  0  0  0  0  0  0  0  0  0
   29.5548   25.3550   45.4263 C   0  0  0  0  0  0  0  0  0  0  0  0
   28.4218   24.8843   44.8834 N   0  0  0  0  0  0  0  0  0  0  0  0
   30.4469   24.4526   46.1413 C   0  0  0  0  0  0  0  0  0  0  0  0
   30.1297   23.1702   46.4919 C   0  0  0  0  0  0  0  0  0  0  0  0
   31.0244   22.3739   47.1676 C   0  0  0  0  0  0  0  0  0  0  0  0
   32.2670   22.8496   47.5095 C   0  0  0  0  0  0  0  0  0  0  0  0
   32.5853   24.1064   47.1690 N   0  0  0  0  0  0  0  0  0  0  0  0
   31.7171   24.8999   46.5056 C   0  0  0  0  0  0  0  0  0  0  0  0
  1  2  1  1
  2  3  2  0
  3  4  1  0
  4  5  2  0
  5  6  1  0
  6  7  1  0
  7  8  2  0
  7  9  1  0
  9 10  2  0
 10 11  1  0
 11 12  2  0
 12 13  1  0
 13 14  1  1
 15 14  1  1
 15 16  1  0
 16 17  1  1
 18 17  1  6
 19 17  1  6
 19 20  1  0
 12 21  1  0
 21 22  2  0
  5 23  1  0
 23 24  2  0
 24 25  1  0
 25 26  1  0
 26 27  2  0
 27 28  1  0
 28 29  2  0
 29 30  1  0
 30 31  2  0
 30 32  1  0
 32 33  2  0
 33 34  1  0
 34 35  2  0
 35 36  1  0
 36 37  2  0
 24  2  1  0
 22  9  1  0
 20 14  1  1
 31 26  1  0
 37 32  1  0
M  END
$$$$
