imatinib
     RDKit          3D

 37 41  0  0  0  0  0  0  0  0999 V2000
   24.0520   25.6934   45.4876 C   0  0  0  0  0  0  0  0  0  0  0  0
   23.9705   25.9522   44.0366 C   0  0  0  0  0  0  0  0  0  0  0  0
   22.8384   26.5541   43.5353 C   0  0  0  0  0  0  0  0  0  0  0  0
   22.6955   26.8230   42.2057 C   0  0  0  0  0  0  0  0  0  0  0  0
   23.7287   26.4716   41.3647 C   0  0  0  0  0  0  0  0  0  0  0  0
   23.6323   26.7310   39.9540 N   0  0  0  0  0  0  0  0  0  0  0  0
   24.8027   26.5478   39.1682 C   0  0  0  0  0  0  0  0  0  0  0  0
   25.9186   26.4969   39.7449 O   0  0  0  0  0  0  0  0  0  0  0  0
   24.7813   26.4141   37.7167 C   0  0  0  0  0  0  0  0  0  0  0  0
   23.5579   26.4650   37.0898 C   0  0  0  0  0  0  0  0  0  0  0  0
   23.5069   26.3421   35.7027 C   0  0  0  0  0  0  0  0  0  0  0  0
   24.6541   26.1706   34.9430 C   0  0  0  0  0  0  0  0  0  0  0  0
   24.4741   26.0549   33.4789 C   0  0  0  0  0  0  0  0  0  0  0  0
   23.9420   27.2466   32.9408 N   0  0  0  0  0  0  0  0  0  0  0  0
   24.2091   28.4370   33.6793 C   0  0  0  0  0  0  0  0  0  0  0  0
   23.5794   29.6679   33.0924 C   0  0  0  0  0  0  0  0  0  0  0  0
   23.1290   29.4791   31.7444 N   0  0  0  0  0  0  0  0  0  0  0  0
   24.2199   29.3436   30.8222 C   0  0  0  0  0  0  0  0  0  0  0  0
   22.1707   28.3983   31.6860 C   0  0  0  0  0  0  0  0  0  0  0  0
   22.6474   27.1529   32.3652 C   0  0  0  0  0  0  0  0  0  0  0  0
   25.8608   26.1223   35.5831 C   0  0  0  0  0  0  0  0  0  0  0  0
   25.9172   26.2436   36.9580 C   0  0  0  0  0  0  0  0  0  0  0  0
   24.8738   25.8619   41.8785 C   0  0  0  0  0  0  0  0  0  0  0  0
   25.0355   25.5835   43.2128 C   0  0  0  0  0  0  0  0  0  0  0  0
   26.1706   24.9689   43.7810 N   0  0  0  0  0  0  0  0  0  0  0  0
   27.2440   25.6060   44.4315 C   0  0  0  0  0  0  0  0  0  0  0  0
   27.4119   26.9159   44.5863 N   0  0  0  0  0  0  0  0  0  0  0  0
   28.4421   27.5114   45.2090 C   0  0  0  0  0  0  0  0  0  0  0  0
   29.4135   26.6890   45.7355 C   0  0  0  0  0  0  0  0  0  0  0  0
   29.2947   25.3236   45.6067 C   0  0  0  0  0  0  0  0  0  0  0  0
   28.2281   24.8206   44.9669 N   0  0  0  0  0  0  0  0  0  0  0  0
   30.3041   24.4262   46.1519 C   0  0  0  0  0  0  0  0  0  0  0  0
   31.4623   24.8384   46.7492 C   0  0  0  0  0  0  0  0  0  0  0  0
   32.3715   23.9323   47.2427 C   0  0  0  0  0  0  0  0  0  0  0  0
   32.1376   22.5819   47.1475 C   0  0  0  0  0  0  0  0  0  0  0  0
   31.0038   22.1700   46.5630 N   0  0  0  0  0  0  0  0  0  0  0  0
   30.1019   23.0481   46.0739 C   0  0  0  0  0  0  0  0  0  0  0  0
  1  2  1  1
  2  3  2  0
  3  4  1  0
  4  5  2  0
  5  6  1  0
  6  7  1  0
  7  8  2  0
  7  9  1  0
  9 10  2  0
 10 11  1  0
 11 12  2  0
 12 13  1  0
 13 14  1  1
 15 14  1  1
 15 16  1  0
 16 17  1  1
 18 17  1  6
 19 17  1  6
 19 20  1  0
 12 21  1  0
 21 22  2  0
  5 23  1  0
 23 24  2  0
 24 25  1  0
 25 26  1  0
 26 27  2  0
 27 28  1  0
 28 29  2  0
 29 30  1  0
 30 31  2  0
 30 32  1  0
 32 33  2  0
 33 34  1  0
 34 35  2  0
 35 36  1  0
 36 37  2  0
 24  2  1  0
 22  9  1  0
 20 14  1  1
 31 26  1  0
 37 32  1  0
M  END
$$$$
