imatinib
     RDKit          3D

 37 41  0  0  0  0  0  0  0  0999 V2000
   24.5671   26.8216   45.3824 C   0  0  0  0  0  0  0  0  0  0  0  0
   24.3495   26.4020   43.9840 C   0  0  0  0  0  0  0  0  0  0  0  0
   23.2520   26.8895   43.3109 C   0  0  0  0  0  0  0  0  0  0  0  0
   22.9894   26.5441   42.0178 C   0  0  0  0  0  0  0  0  0  0  0  0
   23.8639   25.6820   41.3930 C   0  0  0  0  0  0  0  0  0  0  0  0
   23.6365   25.2837   40.0305 N   0  0  0  0  0  0  0  0  0  0  0  0
   24.4871   25.8319   39.0323 C   0  0  0  0  0  0  0  0  0  0  0  0
   25.5496   26.4026   39.3874 O   0  0  0  0  0  0  0  0  0  0  0  0
   24.1938   25.7689   37.6057 C   0  0  0  0  0  0  0  0  0  0  0  0
   22.9731   26.2427   37.1843 C   0  0  0  0  0  0  0  0  0  0  0  0
   22.6660   26.1971   35.8259 C   0  0  0  0  0  0  0  0  0  0  0  0
   23.5570   25.6881   34.8933 C   0  0  0  0  0  0  0  0  0  0  0  0
   23.1201   25.6946   33.4797 C   0  0  0  0  0  0  0  0  0  0  0  0
   23.3464   26.9562   32.8879 N   0  0  0  0  0  0  0  0  0  0  0  0
   23.2344   27.0066   31.4671 C   0  0  0  0  0  0  0  0  0  0  0  0
   23.5336   28.3580   30.8837 C   0  0  0  0  0  0  0  0  0  0  0  0
   23.5361   29.4040   31.8642 N   0  0  0  0  0  0  0  0  0  0  0  0
   22.2204   29.6805   32.3655 C   0  0  0  0  0  0  0  0  0  0  0  0
   24.5108   29.1200   32.8933 C   0  0  0  0  0  0  0  0  0  0  0  0
   24.3870   27.7383   33.4548 C   0  0  0  0  0  0  0  0  0  0  0  0
   24.7652   25.2217   35.3304 C   0  0  0  0  0  0  0  0  0  0  0  0
   25.0748   25.2645   36.6759 C   0  0  0  0  0  0  0  0  0  0  0  0
   24.9746   25.1911   42.0802 C   0  0  0  0  0  0  0  0  0  0  0  0
   25.2550   25.5272   43.3811 C   0  0  0  0  0  0  0  0  0  0  0  0
   26.3617   25.0584   44.1191 N   0  0  0  0  0  0  0  0  0  0  0  0
   27.6202   25.6763   44.2458 C   0  0  0  0  0  0  0  0  0  0  0  0
   28.0259   26.7819   43.6286 N   0  0  0  0  0  0  0  0  0  0  0  0
   29.2307   27.3611   43.7580 C   0  0  0  0  0  0  0  0  0  0  0  0
   30.1278   26.7535   44.6082 C   0  0  0  0  0  0  0  0  0  0  0  0
   29.7650   25.6054   45.2757 C   0  0  0  0  0  0  0  0  0  0  0  0
   28.5372   25.1005   45.0821 N   0  0  0  0  0  0  0  0  0  0  0  0
   30.6898   24.9384   46.1819 C   0  0  0  0  0  0  0  0  0  0  0  0
   32.0128   25.2578   46.3082 C   0  0  0  0  0  0  0  0  0  0  0  0
   32.8282   24.5836   47.1867 C   0  0  0  0  0  0  0  0  0  0  0  0
   32.3311   23.5660   47.9643 C   0  0  0  0  0  0  0  0  0  0  0  0
   31.0346   23.2470   47.8460 N   0  0  0  0  0  0  0  0  0  0  0  0
   30.2220   23.9001   46.9877 C   0  0  0  0  0  0  0  0  0  0  0  0
  1  2  1  1
  2  3  2  0
  3  4  1  0
  4  5  2  0
  5  6  1  0
  6  7  1  0
  7  8  2  0
  7  9  1  0
  9 10  2  0
 10 11  1  0
 11 12  2  0
 12 13  1  0
 13 14  1  1
 15 14  1  1
 15 16  1  0
 16 17  1  1
 18 17  1  6
 19 17  1  6
 19 20  1  0
 12 21  1  0
 21 22  2  0
  5 23  1  0
 23 24  2  0
 24 25  1  0
 25 26  1  0
 26 27  2  0
 27 28  1  0
 28 29  2  0
 29 30  1  0
 30 31  2  0
 30 32  1  0
 32 33  2  0
 33 34  1  0
 34 35  2  0
 35 36  1  0
 36 37  2  0
 24  2  1  0
 22  9  1  0
 20 14  1  1
 31 26  1  0
 37 32  1  0
M  END
$$$$
