imatinib
     RDKit          3D

 37 41  0  0  0  0  0  0  0  0999 V2000
   24.9080   26.1722   45.3442 C   0  0  0  0  0  0  0  0  0  0  0  0
   24.6390   26.3235   43.9007 C   0  0  0  0  0  0  0  0  0  0  0  0
   23.5100   27.0058   43.5069 C   0  0  0  0  0  0  0  0  0  0  0  0
   23.1995   27.1835   42.1906 C   0  0  0  0  0  0  0  0  0  0  0  0
   24.0576   26.6547   41.2512 C   0  0  0  0  0  0  0  0  0  0  0  0
   23.7800   26.8114   39.8494 N   0  0  0  0  0  0  0  0  0  0  0  0
   24.8288   26.5260   38.9333 C   0  0  0  0  0  0  0  0  0  0  0  0
   26.0095   26.4694   39.3617 O   0  0  0  0  0  0  0  0  0  0  0  0
   24.6102   26.2928   37.5111 C   0  0  0  0  0  0  0  0  0  0  0  0
   23.3568   26.5534   37.0077 C   0  0  0  0  0  0  0  0  0  0  0  0
   23.1191   26.3418   35.6511 C   0  0  0  0  0  0  0  0  0  0  0  0
   24.1107   25.8771   34.8006 C   0  0  0  0  0  0  0  0  0  0  0  0
   23.7399   25.6938   33.3800 C   0  0  0  0  0  0  0  0  0  0  0  0
   23.6111   26.9394   32.7280 N   0  0  0  0  0  0  0  0  0  0  0  0
   23.3407   26.8848   31.3288 C   0  0  0  0  0  0  0  0  0  0  0  0
   23.2630   28.2343   30.6739 C   0  0  0  0  0  0  0  0  0  0  0  0
   23.1329   29.3078   31.6153 N   0  0  0  0  0  0  0  0  0  0  0  0
   21.8494   29.3138   32.2568 C   0  0  0  0  0  0  0  0  0  0  0  0
   24.2500   29.3041   32.5329 C   0  0  0  0  0  0  0  0  0  0  0  0
   24.5020   27.9626   33.1465 C   0  0  0  0  0  0  0  0  0  0  0  0
   25.3500   25.6235   35.3185 C   0  0  0  0  0  0  0  0  0  0  0  0
   25.5912   25.8316   36.6626 C   0  0  0  0  0  0  0  0  0  0  0  0
   25.2004   25.9641   41.6564 C   0  0  0  0  0  0  0  0  0  0  0  0
   25.5291   25.7754   42.9755 C   0  0  0  0  0  0  0  0  0  0  0  0
   26.6697   25.0854   43.4361 N   0  0  0  0  0  0  0  0  0  0  0  0
   27.8613   25.6498   43.9289 C   0  0  0  0  0  0  0  0  0  0  0  0
   28.2568   26.9117   43.7906 N   0  0  0  0  0  0  0  0  0  0  0  0
   29.3976   27.4377   44.2657 C   0  0  0  0  0  0  0  0  0  0  0  0
   30.2342   26.5918   44.9595 C   0  0  0  0  0  0  0  0  0  0  0  0
   29.8785   25.2735   45.1353 C   0  0  0  0  0  0  0  0  0  0  0  0
   28.7170   24.8390   44.6234 N   0  0  0  0  0  0  0  0  0  0  0  0
   30.7404   24.3529   45.8640 C   0  0  0  0  0  0  0  0  0  0  0  0
   30.3819   23.0861   46.2313 C   0  0  0  0  0  0  0  0  0  0  0  0
   31.2498   22.2708   46.9193 C   0  0  0  0  0  0  0  0  0  0  0  0
   32.5065   22.7112   47.2570 C   0  0  0  0  0  0  0  0  0  0  0  0
   32.8653   23.9526   46.9002 N   0  0  0  0  0  0  0  0  0  0  0  0
   32.0238   24.7643   46.2245 C   0  0  0  0  0  0  0  0  0  0  0  0
  1  2  1  1
  2  3  2  0
  3  4  1  0
  4  5  2  0
  5  6  1  0
  6  7  1  0
  7  8  2  0
  7  9  1  0
  9 10  2  0
 10 11  1  0
 11 12  2  0
 12 13  1  0
 13 14  1  1
 15 14  1  1
 15 16  1  0
 16 17  1  1
 18 17  1  6
 19 17  1  6
 19 20  1  0
 12 21  1  0
 21 22  2  0
  5 23  1  0
 23 24  2  0
 24 25  1  0
 25 26  1  0
 26 27  2  0
 27 28  1  0
 28 29  2  0
 29 30  1  0
 30 31  2  0
 30 32  1  0
 32 33  2  0
 33 34  1  0
 34 35  2  0
 35 36  1  0
 36 37  2  0
 24  2  1  0
 22  9  1  0
 20 14  1  1
 31 26  1  0
 37 32  1  0
M  END
$$$$
