imatinib
     RDKit          3D

 37 41  0  0  0  0  0  0  0  0999 V2000
   24.2786   26.7216   45.4746 C   0  0  0  0  0  0  0  0  0  0  0  0
   24.0560   26.5474   44.0258 C   0  0  0  0  0  0  0  0  0  0  0  0
   22.9220   27.0872   43.4619 C   0  0  0  0  0  0  0  0  0  0  0  0
   22.6527   26.9647   42.1303 C   0  0  0  0  0  0  0  0  0  0  0  0
   23.5581   26.2766   41.3525 C   0  0  0  0  0  0  0  0  0  0  0  0
   23.3252   26.1163   39.9430 N   0  0  0  0  0  0  0  0  0  0  0  0
   24.4597   25.9647   39.1000 C   0  0  0  0  0  0  0  0  0  0  0  0
   25.5998   25.8910   39.6249 O   0  0  0  0  0  0  0  0  0  0  0  0
   24.3746   25.8890   37.6468 C   0  0  0  0  0  0  0  0  0  0  0  0
   25.5200   25.5650   36.9572 C   0  0  0  0  0  0  0  0  0  0  0  0
   25.4682   25.4831   35.5671 C   0  0  0  0  0  0  0  0  0  0  0  0
   24.2956   25.7192   34.8657 C   0  0  0  0  0  0  0  0  0  0  0  0
   24.3634   25.5999   33.3925 C   0  0  0  0  0  0  0  0  0  0  0  0
   23.9692   26.8045   32.7707 N   0  0  0  0  0  0  0  0  0  0  0  0
   24.2729   28.0017   33.4836 C   0  0  0  0  0  0  0  0  0  0  0  0
   23.7884   29.2506   32.8041 C   0  0  0  0  0  0  0  0  0  0  0  0
   23.4276   29.0390   31.4328 N   0  0  0  0  0  0  0  0  0  0  0  0
   24.5709   28.7818   30.6048 C   0  0  0  0  0  0  0  0  0  0  0  0
   22.3942   28.0325   31.3390 C   0  0  0  0  0  0  0  0  0  0  0  0
   22.7184   26.7847   32.0990 C   0  0  0  0  0  0  0  0  0  0  0  0
   23.1674   26.0399   35.5676 C   0  0  0  0  0  0  0  0  0  0  0  0
   23.2131   26.1225   36.9458 C   0  0  0  0  0  0  0  0  0  0  0  0
   24.7057   25.7316   41.9296 C   0  0  0  0  0  0  0  0  0  0  0  0
   24.9935   25.8446   43.2669 C   0  0  0  0  0  0  0  0  0  0  0  0
   26.1368   25.3120   43.8980 N   0  0  0  0  0  0  0  0  0  0  0  0
   27.3218   25.9975   44.2257 C   0  0  0  0  0  0  0  0  0  0  0  0
   27.6721   27.2138   43.8184 N   0  0  0  0  0  0  0  0  0  0  0  0
   28.8071   27.8567   44.1383 C   0  0  0  0  0  0  0  0  0  0  0  0
   29.6885   27.1948   44.9640 C   0  0  0  0  0  0  0  0  0  0  0  0
   29.3808   25.9322   45.4183 C   0  0  0  0  0  0  0  0  0  0  0  0
   28.2212   25.3706   45.0442 N   0  0  0  0  0  0  0  0  0  0  0  0
   30.2908   25.2051   46.2927 C   0  0  0  0  0  0  0  0  0  0  0  0
   31.5399   25.6385   46.6396 C   0  0  0  0  0  0  0  0  0  0  0  0
   32.3457   24.8977   47.4721 C   0  0  0  0  0  0  0  0  0  0  0  0
   31.9136   23.6963   47.9793 C   0  0  0  0  0  0  0  0  0  0  0  0
   30.6898   23.2647   47.6436 N   0  0  0  0  0  0  0  0  0  0  0  0
   29.8874   23.9812   46.8272 C   0  0  0  0  0  0  0  0  0  0  0  0
  1  2  1  1
  2  3  2  0
  3  4  1  0
  4  5  2  0
  5  6  1  0
  6  7  1  0
  7  8  2  0
  7  9  1  0
  9 10  2  0
 10 11  1  0
 11 12  2  0
 12 13  1  0
 13 14  1  1
 15 14  1  1
 15 16  1  0
 16 17  1  1
 18 17  1  6
 19 17  1  6
 19 20  1  0
 12 21  1  0
 21 22  2  0
  5 23  1  0
 23 24  2  0
 24 25  1  0
 25 26  1  0
 26 27  2  0
 27 28  1  0
 28 29  2  0
 29 30  1  0
 30 31  2  0
 30 32  1  0
 32 33  2  0
 33 34  1  0
 34 35  2  0
 35 36  1  0
 36 37  2  0
 24  2  1  0
 22  9  1  0
 20 14  1  1
 31 26  1  0
 37 32  1  0
M  END
$$$$
