quercetin
     RDKit          3D

 22 24  0  0  0  0  0  0  0  0999 V2000
   73.7231   38.1874   -2.1263 O   0  0  0  0  0  0  0  0  0  0  0  0
   74.0768   37.7784   -0.9838 C   0  0  0  0  0  0  0  0  0  0  0  0
   74.5207   36.4632   -0.8075 C   0  0  0  0  0  0  0  0  0  0  0  0
   74.5399   35.6790   -1.9398 O   0  0  0  0  0  0  0  0  0  0  0  0
   74.9151   35.9693    0.4073 C   0  0  0  0  0  0  0  0  0  0  0  0
   75.3835   34.6340    0.6761 C   0  0  0  0  0  0  0  0  0  0  0  0
   75.8661   34.1601    1.8653 C   0  0  0  0  0  0  0  0  0  0  0  0
   76.3016   32.8469    2.0425 C   0  0  0  0  0  0  0  0  0  0  0  0
   76.2632   31.9511    1.0034 C   0  0  0  0  0  0  0  0  0  0  0  0
   76.6934   30.6427    1.1672 O   0  0  0  0  0  0  0  0  0  0  0  0
   75.7806   32.4061   -0.2048 C   0  0  0  0  0  0  0  0  0  0  0  0
   75.7228   31.5370   -1.2839 O   0  0  0  0  0  0  0  0  0  0  0  0
   75.3526   33.7049   -0.3707 C   0  0  0  0  0  0  0  0  0  0  0  0
   74.8471   36.8348    1.4213 O   0  0  0  0  0  0  0  0  0  0  0  0
   74.4467   38.0555    1.3159 C   0  0  0  0  0  0  0  0  0  0  0  0
   74.4219   38.8461    2.4301 C   0  0  0  0  0  0  0  0  0  0  0  0
   73.9940   40.1742    2.3544 C   0  0  0  0  0  0  0  0  0  0  0  0
   73.9868   40.9434    3.5238 O   0  0  0  0  0  0  0  0  0  0  0  0
   73.5951   40.6848    1.1434 C   0  0  0  0  0  0  0  0  0  0  0  0
   73.6075   39.9166    0.0015 C   0  0  0  0  0  0  0  0  0  0  0  0
   73.2118   40.3942   -1.2448 O   0  0  0  0  0  0  0  0  0  0  0  0
   74.0394   38.6057    0.1244 C   0  0  0  0  0  0  0  0  0  0  0  0
  1  2  2  0
  2  3  1  0
  3  4  1  0
  3  5  2  0
  5  6  1  0
  6  7  2  0
  7  8  1  0
  8  9  2  0
  9 10  1  0
  9 11  1  0
 11 12  1  0
 11 13  2  0
  5 14  1  0
 14 15  1  0
 15 16  2  0
 16 17  1  0
 17 18  1  0
 17 19  2  0
 19 20  1  0
 20 21  1  0
 20 22  2  0
 22  2  1  0
 13  6  1  0
 22 15  1  0
M  END
$$$$
