quercetin
     RDKit          3D

 22 24  0  0  0  0  0  0  0  0999 V2000
   75.6935   32.6020   -1.8998 O   0  0  0  0  0  0  0  0  0  0  0  0
   75.5627   33.3650   -0.9007 C   0  0  0  0  0  0  0  0  0  0  0  0
   75.1372   34.6874   -1.0691 C   0  0  0  0  0  0  0  0  0  0  0  0
   74.8818   35.0755   -2.3660 O   0  0  0  0  0  0  0  0  0  0  0  0
   74.9790   35.5555   -0.0220 C   0  0  0  0  0  0  0  0  0  0  0  0
   74.5472   36.9271   -0.1062 C   0  0  0  0  0  0  0  0  0  0  0  0
   74.5883   37.8606    0.8929 C   0  0  0  0  0  0  0  0  0  0  0  0
   74.1481   39.1739    0.7281 C   0  0  0  0  0  0  0  0  0  0  0  0
   73.6418   39.5958   -0.4757 C   0  0  0  0  0  0  0  0  0  0  0  0
   73.2009   40.8991   -0.6519 O   0  0  0  0  0  0  0  0  0  0  0  0
   73.5905   38.6724   -1.4975 C   0  0  0  0  0  0  0  0  0  0  0  0
   73.0866   39.0528   -2.7322 O   0  0  0  0  0  0  0  0  0  0  0  0
   74.0275   37.3773   -1.3257 C   0  0  0  0  0  0  0  0  0  0  0  0
   75.2606   35.0509    1.1814 O   0  0  0  0  0  0  0  0  0  0  0  0
   75.6556   33.8425    1.3941 C   0  0  0  0  0  0  0  0  0  0  0  0
   75.9130   33.4424    2.6749 C   0  0  0  0  0  0  0  0  0  0  0  0
   76.3428   32.1402    2.9440 C   0  0  0  0  0  0  0  0  0  0  0  0
   76.5934   31.7786    4.2728 O   0  0  0  0  0  0  0  0  0  0  0  0
   76.5064   31.2573    1.9048 C   0  0  0  0  0  0  0  0  0  0  0  0
   76.2562   31.6269    0.6029 C   0  0  0  0  0  0  0  0  0  0  0  0
   76.4090   30.7642   -0.4789 O   0  0  0  0  0  0  0  0  0  0  0  0
   75.8320   32.9277    0.3839 C   0  0  0  0  0  0  0  0  0  0  0  0
  1  2  2  0
  2  3  1  0
  3  4  1  0
  3  5  2  0
  5  6  1  0
  6  7  2  0
  7  8  1  0
  8  9  2  0
  9 10  1  0
  9 11  1  0
 11 12  1  0
 11 13  2  0
  5 14  1  0
 14 15  1  0
 15 16  2  0
 16 17  1  0
 17 18  1  0
 17 19  2  0
 19 20  1  0
 20 21  1  0
 20 22  2  0
 22  2  1  0
 13  6  1  0
 22 15  1  0
M  END
$$$$
