quercetin
     RDKit          3D

 22 24  0  0  0  0  0  0  0  0999 V2000
   75.2638   33.9736   -1.6782 O   0  0  0  0  0  0  0  0  0  0  0  0
   75.1143   34.7511   -0.6930 C   0  0  0  0  0  0  0  0  0  0  0  0
   75.4307   34.3244    0.6016 C   0  0  0  0  0  0  0  0  0  0  0  0
   75.9013   33.0343    0.7104 O   0  0  0  0  0  0  0  0  0  0  0  0
   75.2877   35.1253    1.7030 C   0  0  0  0  0  0  0  0  0  0  0  0
   75.5885   34.7672    3.0654 C   0  0  0  0  0  0  0  0  0  0  0  0
   75.5096   35.5814    4.1619 C   0  0  0  0  0  0  0  0  0  0  0  0
   75.8201   35.1542    5.4529 C   0  0  0  0  0  0  0  0  0  0  0  0
   76.2288   33.8645    5.6834 C   0  0  0  0  0  0  0  0  0  0  0  0
   76.5404   33.4279    6.9625 O   0  0  0  0  0  0  0  0  0  0  0  0
   76.3158   33.0255    4.5934 C   0  0  0  0  0  0  0  0  0  0  0  0
   76.7244   31.7131    4.7772 O   0  0  0  0  0  0  0  0  0  0  0  0
   76.0071   33.4561    3.3218 C   0  0  0  0  0  0  0  0  0  0  0  0
   74.8221   36.3518    1.4566 O   0  0  0  0  0  0  0  0  0  0  0  0
   74.5152   36.7967    0.2864 C   0  0  0  0  0  0  0  0  0  0  0  0
   74.0470   38.0743    0.1621 C   0  0  0  0  0  0  0  0  0  0  0  0
   73.7042   38.5909   -1.0903 C   0  0  0  0  0  0  0  0  0  0  0  0
   73.2292   39.9054   -1.1656 O   0  0  0  0  0  0  0  0  0  0  0  0
   73.8417   37.8004   -2.2050 C   0  0  0  0  0  0  0  0  0  0  0  0
   74.3102   36.5094   -2.1159 C   0  0  0  0  0  0  0  0  0  0  0  0
   74.4647   35.6750   -3.2194 O   0  0  0  0  0  0  0  0  0  0  0  0
   74.6375   36.0398   -0.8540 C   0  0  0  0  0  0  0  0  0  0  0  0
  1  2  2  0
  2  3  1  0
  3  4  1  0
  3  5  2  0
  5  6  1  0
  6  7  2  0
  7  8  1  0
  8  9  2  0
  9 10  1  0
  9 11  1  0
 11 12  1  0
 11 13  2  0
  5 14  1  0
 14 15  1  0
 15 16  2  0
 16 17  1  0
 17 18  1  0
 17 19  2  0
 19 20  1  0
 20 21  1  0
 20 22  2  0
 22  2  1  0
 13  6  1  0
 22 15  1  0
M  END
$$$$
