quercetin
     RDKit          3D

 22 24  0  0  0  0  0  0  0  0999 V2000
   73.6761   39.9119    2.8151 O   0  0  0  0  0  0  0  0  0  0  0  0
   73.7605   38.7088    2.4372 C   0  0  0  0  0  0  0  0  0  0  0  0
   73.7213   37.6676    3.3713 C   0  0  0  0  0  0  0  0  0  0  0  0
   73.5881   38.0475    4.6887 O   0  0  0  0  0  0  0  0  0  0  0  0
   73.8086   36.3480    3.0162 C   0  0  0  0  0  0  0  0  0  0  0  0
   73.7768   35.2184    3.9094 C   0  0  0  0  0  0  0  0  0  0  0  0
   73.6742   33.9002    3.5582 C   0  0  0  0  0  0  0  0  0  0  0  0
   73.6501   32.8624    4.4898 C   0  0  0  0  0  0  0  0  0  0  0  0
   73.7307   33.1273    5.8340 C   0  0  0  0  0  0  0  0  0  0  0  0
   73.7078   32.1040    6.7700 O   0  0  0  0  0  0  0  0  0  0  0  0
   73.8348   34.4487    6.2119 C   0  0  0  0  0  0  0  0  0  0  0  0
   73.9188   34.7652    7.5594 O   0  0  0  0  0  0  0  0  0  0  0  0
   73.8578   35.4673    5.2847 C   0  0  0  0  0  0  0  0  0  0  0  0
   73.9348   36.1193    1.7071 O   0  0  0  0  0  0  0  0  0  0  0  0
   73.9763   37.0384    0.8044 C   0  0  0  0  0  0  0  0  0  0  0  0
   74.1082   36.6776   -0.5069 C   0  0  0  0  0  0  0  0  0  0  0  0
   74.1569   37.6462   -1.5131 C   0  0  0  0  0  0  0  0  0  0  0  0
   74.2928   37.2261   -2.8413 O   0  0  0  0  0  0  0  0  0  0  0  0
   74.0706   38.9742   -1.1736 C   0  0  0  0  0  0  0  0  0  0  0  0
   73.9372   39.3727    0.1369 C   0  0  0  0  0  0  0  0  0  0  0  0
   73.8464   40.7068    0.5242 O   0  0  0  0  0  0  0  0  0  0  0  0
   73.8934   38.3778    1.1005 C   0  0  0  0  0  0  0  0  0  0  0  0
  1  2  2  0
  2  3  1  0
  3  4  1  0
  3  5  2  0
  5  6  1  0
  6  7  2  0
  7  8  1  0
  8  9  2  0
  9 10  1  0
  9 11  1  0
 11 12  1  0
 11 13  2  0
  5 14  1  0
 14 15  1  0
 15 16  2  0
 16 17  1  0
 17 18  1  0
 17 19  2  0
 19 20  1  0
 20 21  1  0
 20 22  2  0
 22  2  1  0
 13  6  1  0
 22 15  1  0
M  END
$$$$
