quercetin
     RDKit          3D

 22 24  0  0  0  0  0  0  0  0999 V2000
   73.8573   38.5094   -2.3696 O   0  0  0  0  0  0  0  0  0  0  0  0
   74.1651   37.6632   -1.4826 C   0  0  0  0  0  0  0  0  0  0  0  0
   74.5031   36.3530   -1.8393 C   0  0  0  0  0  0  0  0  0  0  0  0
   74.4740   36.0711   -3.1873 O   0  0  0  0  0  0  0  0  0  0  0  0
   74.8441   35.3976   -0.9194 C   0  0  0  0  0  0  0  0  0  0  0  0
   75.2040   34.0312   -1.1992 C   0  0  0  0  0  0  0  0  0  0  0  0
   75.6620   33.1056   -0.3019 C   0  0  0  0  0  0  0  0  0  0  0  0
   75.9896   31.7970   -0.6564 C   0  0  0  0  0  0  0  0  0  0  0  0
   75.8629   31.3717   -1.9551 C   0  0  0  0  0  0  0  0  0  0  0  0
   76.1855   30.0730   -2.3199 O   0  0  0  0  0  0  0  0  0  0  0  0
   75.4031   32.2872   -2.8771 C   0  0  0  0  0  0  0  0  0  0  0  0
   75.2588   31.9031   -4.2018 O   0  0  0  0  0  0  0  0  0  0  0  0
   75.0819   33.5777   -2.5179 C   0  0  0  0  0  0  0  0  0  0  0  0
   74.8323   35.8038    0.3521 O   0  0  0  0  0  0  0  0  0  0  0  0
   74.5295   36.9962    0.7367 C   0  0  0  0  0  0  0  0  0  0  0  0
   74.5537   37.2915    2.0705 C   0  0  0  0  0  0  0  0  0  0  0  0
   74.2315   38.5732    2.5246 C   0  0  0  0  0  0  0  0  0  0  0  0
   74.2710   38.8260    3.9008 O   0  0  0  0  0  0  0  0  0  0  0  0
   73.8873   39.5428    1.6148 C   0  0  0  0  0  0  0  0  0  0  0  0
   73.8527   39.2798    0.2643 C   0  0  0  0  0  0  0  0  0  0  0  0
   73.5096   40.2326   -0.6909 O   0  0  0  0  0  0  0  0  0  0  0  0
   74.1797   37.9954   -0.1397 C   0  0  0  0  0  0  0  0  0  0  0  0
  1  2  2  0
  2  3  1  0
  3  4  1  0
  3  5  2  0
  5  6  1  0
  6  7  2  0
  7  8  1  0
  8  9  2  0
  9 10  1  0
  9 11  1  0
 11 12  1  0
 11 13  2  0
  5 14  1  0
 14 15  1  0
 15 16  2  0
 16 17  1  0
 17 18  1  0
 17 19  2  0
 19 20  1  0
 20 21  1  0
 20 22  2  0
 22  2  1  0
 13  6  1  0
 22 15  1  0
M  END
$$$$
