quercetin
     RDKit          3D

 22 24  0  0  0  0  0  0  0  0999 V2000
   74.0278   38.1439   -2.0868 O   0  0  0  0  0  0  0  0  0  0  0  0
   74.3071   37.5069   -1.0314 C   0  0  0  0  0  0  0  0  0  0  0  0
   74.6357   36.1479   -1.0893 C   0  0  0  0  0  0  0  0  0  0  0  0
   74.6300   35.5817   -2.3451 O   0  0  0  0  0  0  0  0  0  0  0  0
   74.9461   35.4111    0.0225 C   0  0  0  0  0  0  0  0  0  0  0  0
   75.2943   34.0138    0.0523 C   0  0  0  0  0  0  0  0  0  0  0  0
   75.5724   33.2633    1.1618 C   0  0  0  0  0  0  0  0  0  0  0  0
   75.9025   31.9094    1.1036 C   0  0  0  0  0  0  0  0  0  0  0  0
   75.9638   31.2557   -0.1016 C   0  0  0  0  0  0  0  0  0  0  0  0
   76.2909   29.9097   -0.1724 O   0  0  0  0  0  0  0  0  0  0  0  0
   75.6874   31.9917   -1.2337 C   0  0  0  0  0  0  0  0  0  0  0  0
   75.7369   31.3739   -2.4743 O   0  0  0  0  0  0  0  0  0  0  0  0
   75.3622   33.3286   -1.1666 C   0  0  0  0  0  0  0  0  0  0  0  0
   74.9140   36.0826    1.1758 O   0  0  0  0  0  0  0  0  0  0  0  0
   74.6186   37.3323    1.2870 C   0  0  0  0  0  0  0  0  0  0  0  0
   74.6198   37.9085    2.5259 C   0  0  0  0  0  0  0  0  0  0  0  0
   74.3047   39.2606    2.6854 C   0  0  0  0  0  0  0  0  0  0  0  0
   74.3198   39.8044    3.9751 O   0  0  0  0  0  0  0  0  0  0  0  0
   73.9911   40.0134    1.5804 C   0  0  0  0  0  0  0  0  0  0  0  0
   73.9802   39.4652    0.3180 C   0  0  0  0  0  0  0  0  0  0  0  0
   73.6683   40.1918   -0.8277 O   0  0  0  0  0  0  0  0  0  0  0  0
   74.2991   38.1212    0.2082 C   0  0  0  0  0  0  0  0  0  0  0  0
  1  2  2  0
  2  3  1  0
  3  4  1  0
  3  5  2  0
  5  6  1  0
  6  7  2  0
  7  8  1  0
  8  9  2  0
  9 10  1  0
  9 11  1  0
 11 12  1  0
 11 13  2  0
  5 14  1  0
 14 15  1  0
 15 16  2  0
 16 17  1  0
 17 18  1  0
 17 19  2  0
 19 20  1  0
 20 21  1  0
 20 22  2  0
 22  2  1  0
 13  6  1  0
 22 15  1  0
M  END
$$$$
