quercetin
     RDKit          3D

 22 24  0  0  0  0  0  0  0  0999 V2000
   75.4143   31.9654   -2.5794 O   0  0  0  0  0  0  0  0  0  0  0  0
   75.3131   32.7239   -1.5734 C   0  0  0  0  0  0  0  0  0  0  0  0
   74.9560   34.0676   -1.7313 C   0  0  0  0  0  0  0  0  0  0  0  0
   74.7319   34.4812   -3.0261 O   0  0  0  0  0  0  0  0  0  0  0  0
   74.8324   34.9319   -0.6764 C   0  0  0  0  0  0  0  0  0  0  0  0
   74.4706   36.3242   -0.7497 C   0  0  0  0  0  0  0  0  0  0  0  0
   74.1629   37.0312   -1.8798 C   0  0  0  0  0  0  0  0  0  0  0  0
   73.8215   38.3835   -1.8639 C   0  0  0  0  0  0  0  0  0  0  0  0
   73.7788   39.0802   -0.6823 C   0  0  0  0  0  0  0  0  0  0  0  0
   73.4407   40.4251   -0.6537 O   0  0  0  0  0  0  0  0  0  0  0  0
   74.0852   38.3885    0.4698 C   0  0  0  0  0  0  0  0  0  0  0  0
   74.0554   39.0507    1.6879 O   0  0  0  0  0  0  0  0  0  0  0  0
   74.4213   37.0528    0.4447 C   0  0  0  0  0  0  0  0  0  0  0  0
   75.0776   34.4016    0.5238 O   0  0  0  0  0  0  0  0  0  0  0  0
   75.4095   33.1728    0.7270 C   0  0  0  0  0  0  0  0  0  0  0  0
   75.6352   32.7473    2.0057 C   0  0  0  0  0  0  0  0  0  0  0  0
   75.9967   31.4224    2.2645 C   0  0  0  0  0  0  0  0  0  0  0  0
   76.2170   31.0351    3.5914 O   0  0  0  0  0  0  0  0  0  0  0  0
   76.1249   30.5430    1.2174 C   0  0  0  0  0  0  0  0  0  0  0  0
   75.9051   30.9379   -0.0825 C   0  0  0  0  0  0  0  0  0  0  0  0
   76.0241   30.0796   -1.1721 O   0  0  0  0  0  0  0  0  0  0  0  0
   75.5488   32.2606   -0.2913 C   0  0  0  0  0  0  0  0  0  0  0  0
  1  2  2  0
  2  3  1  0
  3  4  1  0
  3  5  2  0
  5  6  1  0
  6  7  2  0
  7  8  1  0
  8  9  2  0
  9 10  1  0
  9 11  1  0
 11 12  1  0
 11 13  2  0
  5 14  1  0
 14 15  1  0
 15 16  2  0
 16 17  1  0
 17 18  1  0
 17 19  2  0
 19 20  1  0
 20 21  1  0
 20 22  2  0
 22  2  1  0
 13  6  1  0
 22 15  1  0
M  END
$$$$
