quercetin
     RDKit          3D

 22 24  0  0  0  0  0  0  0  0999 V2000
   73.6519   39.2257   -0.4924 O   0  0  0  0  0  0  0  0  0  0  0  0
   74.0682   38.1366   -0.0044 C   0  0  0  0  0  0  0  0  0  0  0  0
   74.3063   38.0202    1.3696 C   0  0  0  0  0  0  0  0  0  0  0  0
   74.0589   39.1489    2.1196 O   0  0  0  0  0  0  0  0  0  0  0  0
   74.7571   36.8646    1.9497 C   0  0  0  0  0  0  0  0  0  0  0  0
   75.0271   36.6596    3.3496 C   0  0  0  0  0  0  0  0  0  0  0  0
   74.8316   37.5599    4.3610 C   0  0  0  0  0  0  0  0  0  0  0  0
   75.1203   37.2808    5.6968 C   0  0  0  0  0  0  0  0  0  0  0  0
   75.6262   36.0585    6.0622 C   0  0  0  0  0  0  0  0  0  0  0  0
   75.9173   35.7690    7.3871 O   0  0  0  0  0  0  0  0  0  0  0  0
   75.8316   35.1350    5.0599 C   0  0  0  0  0  0  0  0  0  0  0  0
   76.3413   33.8859    5.3812 O   0  0  0  0  0  0  0  0  0  0  0  0
   75.5435   35.4194    3.7432 C   0  0  0  0  0  0  0  0  0  0  0  0
   74.9560   35.8472    1.1087 O   0  0  0  0  0  0  0  0  0  0  0  0
   74.7533   35.8988   -0.1632 C   0  0  0  0  0  0  0  0  0  0  0  0
   74.9941   34.7875   -0.9209 C   0  0  0  0  0  0  0  0  0  0  0  0
   74.7859   34.8059   -2.3026 C   0  0  0  0  0  0  0  0  0  0  0  0
   75.0470   33.6420   -3.0350 O   0  0  0  0  0  0  0  0  0  0  0  0
   74.3340   35.9572   -2.8998 C   0  0  0  0  0  0  0  0  0  0  0  0
   74.0813   37.0943   -2.1669 C   0  0  0  0  0  0  0  0  0  0  0  0
   73.6229   38.2811   -2.7320 O   0  0  0  0  0  0  0  0  0  0  0  0
   74.3020   37.0296   -0.8005 C   0  0  0  0  0  0  0  0  0  0  0  0
  1  2  2  0
  2  3  1  0
  3  4  1  0
  3  5  2  0
  5  6  1  0
  6  7  2  0
  7  8  1  0
  8  9  2  0
  9 10  1  0
  9 11  1  0
 11 12  1  0
 11 13  2  0
  5 14  1  0
 14 15  1  0
 15 16  2  0
 16 17  1  0
 17 18  1  0
 17 19  2  0
 19 20  1  0
 20 21  1  0
 20 22  2  0
 22  2  1  0
 13  6  1  0
 22 15  1  0
M  END
$$$$
