quercetin
     RDKit          3D

 22 24  0  0  0  0  0  0  0  0999 V2000
   75.5404   33.4679   -1.1389 O   0  0  0  0  0  0  0  0  0  0  0  0
   75.3468   34.3997   -0.3071 C   0  0  0  0  0  0  0  0  0  0  0  0
   75.6261   34.2078    1.0506 C   0  0  0  0  0  0  0  0  0  0  0  0
   76.1116   32.9653    1.3940 O   0  0  0  0  0  0  0  0  0  0  0  0
   75.4348   35.1828    1.9929 C   0  0  0  0  0  0  0  0  0  0  0  0
   75.6951   35.0697    3.4051 C   0  0  0  0  0  0  0  0  0  0  0  0
   75.4680   36.0247    4.3580 C   0  0  0  0  0  0  0  0  0  0  0  0
   75.7495   35.8343    5.7108 C   0  0  0  0  0  0  0  0  0  0  0  0
   76.2803   34.6491    6.1545 C   0  0  0  0  0  0  0  0  0  0  0  0
   76.5645   34.4478    7.4971 O   0  0  0  0  0  0  0  0  0  0  0  0
   76.5178   33.6717    5.2122 C   0  0  0  0  0  0  0  0  0  0  0  0
   77.0536   32.4572    5.6135 O   0  0  0  0  0  0  0  0  0  0  0  0
   76.2367   33.8686    3.8781 C   0  0  0  0  0  0  0  0  0  0  0  0
   74.9597   36.3392    1.5251 O   0  0  0  0  0  0  0  0  0  0  0  0
   74.6856   36.5705    0.2871 C   0  0  0  0  0  0  0  0  0  0  0  0
   74.2032   37.7982   -0.0695 C   0  0  0  0  0  0  0  0  0  0  0  0
   73.8948   38.0853   -1.4019 C   0  0  0  0  0  0  0  0  0  0  0  0
   73.4035   39.3576   -1.7166 O   0  0  0  0  0  0  0  0  0  0  0  0
   74.0810   37.1183   -2.3592 C   0  0  0  0  0  0  0  0  0  0  0  0
   74.5650   35.8714   -2.0351 C   0  0  0  0  0  0  0  0  0  0  0  0
   74.7684   34.8633   -2.9734 O   0  0  0  0  0  0  0  0  0  0  0  0
   74.8569   35.6319   -0.7019 C   0  0  0  0  0  0  0  0  0  0  0  0
  1  2  2  0
  2  3  1  0
  3  4  1  0
  3  5  2  0
  5  6  1  0
  6  7  2  0
  7  8  1  0
  8  9  2  0
  9 10  1  0
  9 11  1  0
 11 12  1  0
 11 13  2  0
  5 14  1  0
 14 15  1  0
 15 16  2  0
 16 17  1  0
 17 18  1  0
 17 19  2  0
 19 20  1  0
 20 21  1  0
 20 22  2  0
 22  2  1  0
 13  6  1  0
 22 15  1  0
M  END
$$$$
