quercetin
     RDKit          3D

 22 24  0  0  0  0  0  0  0  0999 V2000
   73.6223   38.8002   -2.2997 O   0  0  0  0  0  0  0  0  0  0  0  0
   73.9406   38.2991   -1.1838 C   0  0  0  0  0  0  0  0  0  0  0  0
   73.8823   39.0702   -0.0176 C   0  0  0  0  0  0  0  0  0  0  0  0
   73.4648   40.3730   -0.1794 O   0  0  0  0  0  0  0  0  0  0  0  0
   74.2157   38.5774    1.2157 C   0  0  0  0  0  0  0  0  0  0  0  0
   74.1843   39.2992    2.4619 C   0  0  0  0  0  0  0  0  0  0  0  0
   74.4049   38.7858    3.7106 C   0  0  0  0  0  0  0  0  0  0  0  0
   74.3555   39.5569    4.8718 C   0  0  0  0  0  0  0  0  0  0  0  0
   74.0762   40.8991    4.8086 C   0  0  0  0  0  0  0  0  0  0  0  0
   74.0243   41.6764    5.9562 O   0  0  0  0  0  0  0  0  0  0  0  0
   73.8504   41.4389    3.5607 C   0  0  0  0  0  0  0  0  0  0  0  0
   73.5643   42.7910    3.4471 O   0  0  0  0  0  0  0  0  0  0  0  0
   73.9012   40.6696    2.4191 C   0  0  0  0  0  0  0  0  0  0  0  0
   74.6036   37.3002    1.2310 O   0  0  0  0  0  0  0  0  0  0  0  0
   74.6758   36.5448    0.1891 C   0  0  0  0  0  0  0  0  0  0  0  0
   75.0882   35.2502    0.3332 C   0  0  0  0  0  0  0  0  0  0  0  0
   75.1787   34.4017   -0.7735 C   0  0  0  0  0  0  0  0  0  0  0  0
   75.6064   33.0840   -0.5742 O   0  0  0  0  0  0  0  0  0  0  0  0
   74.8479   34.8807   -2.0175 C   0  0  0  0  0  0  0  0  0  0  0  0
   74.4288   36.1790   -2.1986 C   0  0  0  0  0  0  0  0  0  0  0  0
   74.0842   36.7043   -3.4409 O   0  0  0  0  0  0  0  0  0  0  0  0
   74.3544   36.9836   -1.0729 C   0  0  0  0  0  0  0  0  0  0  0  0
  1  2  2  0
  2  3  1  0
  3  4  1  0
  3  5  2  0
  5  6  1  0
  6  7  2  0
  7  8  1  0
  8  9  2  0
  9 10  1  0
  9 11  1  0
 11 12  1  0
 11 13  2  0
  5 14  1  0
 14 15  1  0
 15 16  2  0
 16 17  1  0
 17 18  1  0
 17 19  2  0
 19 20  1  0
 20 21  1  0
 20 22  2  0
 22  2  1  0
 13  6  1  0
 22 15  1  0
M  END
$$$$
