
     RDKit          3D

 16 17  0  0  0  0  0  0  0  0999 V2000
   21.2632   13.9239   -4.6915 C   0  0  0  0  0  0  0  0  0  0  0  0
   22.3227   14.8635   -5.1054 C   0  0  0  0  0  0  0  0  0  0  0  0
   21.8421   16.2040   -5.4342 C   0  0  0  0  0  0  0  0  0  0  0  0
   20.3758   16.2564   -5.5883 C   0  0  0  0  0  0  0  0  0  0  0  0
   19.8918   15.0700   -4.2743 S   0  0  0  0  0  0  0  0  0  0  0  0
   19.7223   17.5674   -5.4373 C   0  0  0  0  0  0  0  0  0  0  0  0
   18.7324   17.6653   -4.3115 C   0  0  0  0  0  0  0  0  0  0  0  0
   18.3570   19.1094   -4.1185 C   0  0  0  0  0  0  0  0  0  0  0  0
   17.3820   19.3613   -3.0147 C   0  0  0  0  0  0  0  0  0  0  0  0
   16.0598   18.7632   -3.1863 C   0  0  0  0  0  0  0  0  0  0  0  0
   15.6951   18.0496   -4.1545 O   0  0  0  0  0  0  0  0  0  0  0  0
   15.1045   18.9942   -2.1975 O   0  0  0  0  0  0  0  0  0  0  0  0
   22.4673   16.5341   -6.7063 N   0  0  0  0  0  0  0  0  0  0  0  0
   23.4069   15.5144   -7.0228 C   0  0  0  0  0  0  0  0  0  0  0  0
   24.3617   15.6677   -7.8164 O   0  0  0  0  0  0  0  0  0  0  0  0
   23.0355   14.3601   -6.2799 N   0  0  0  0  0  0  0  0  0  0  0  0
  1  2  1  0
  2  3  1  0
  3  4  1  0
  4  5  1  0
  4  6  1  0
  6  7  1  0
  7  8  1  0
  8  9  1  0
  9 10  1  0
 10 11  2  0
 10 12  1  0
  3 13  1  0
 13 14  1  0
 14 15  2  0
 14 16  1  0
  5  1  1  0
 16  2  1  0
M  END
$$$$
