
     RDKit          3D

 16 17  0  0  0  0  0  0  0  0999 V2000
   10.6410    0.7066   -7.6122 C   0  0  0  0  0  0  0  0  0  0  0  0
   12.1048    0.5224   -7.6109 C   0  0  0  0  0  0  0  0  0  0  0  0
   12.7573    0.8856   -8.8671 C   0  0  0  0  0  0  0  0  0  0  0  0
   11.7963    1.0608   -9.9727 C   0  0  0  0  0  0  0  0  0  0  0  0
   10.4083    1.8264   -9.0476 S   0  0  0  0  0  0  0  0  0  0  0  0
   12.2253    1.8715  -11.1249 C   0  0  0  0  0  0  0  0  0  0  0  0
   11.1761    2.7837  -11.6940 C   0  0  0  0  0  0  0  0  0  0  0  0
   11.8051    3.6459  -12.7546 C   0  0  0  0  0  0  0  0  0  0  0  0
   10.8605    4.5688  -13.4535 C   0  0  0  0  0  0  0  0  0  0  0  0
    9.7950    3.9262  -14.2197 C   0  0  0  0  0  0  0  0  0  0  0  0
    9.6378    2.6878  -14.3659 O   0  0  0  0  0  0  0  0  0  0  0  0
    8.8597    4.7444  -14.8520 O   0  0  0  0  0  0  0  0  0  0  0  0
   13.6415   -0.2283   -9.1760 N   0  0  0  0  0  0  0  0  0  0  0  0
   13.6432   -1.1206   -8.0685 C   0  0  0  0  0  0  0  0  0  0  0  0
   14.5526   -1.9493   -7.8417 O   0  0  0  0  0  0  0  0  0  0  0  0
   12.4541   -0.8704   -7.3297 N   0  0  0  0  0  0  0  0  0  0  0  0
  1  2  1  0
  2  3  1  0
  3  4  1  0
  4  5  1  0
  4  6  1  0
  6  7  1  0
  7  8  1  0
  8  9  1  0
  9 10  1  0
 10 11  2  0
 10 12  1  0
  3 13  1  0
 13 14  1  0
 14 15  2  0
 14 16  1  0
  5  1  1  0
 16  2  1  0
M  END
$$$$
