
     RDKit          3D

 16 17  0  0  0  0  0  0  0  0999 V2000
   10.5120    4.5897   12.7651 C   0  0  0  0  0  0  0  0  0  0  0  0
   11.4468    4.8973   13.8643 C   0  0  0  0  0  0  0  0  0  0  0  0
   11.8792    3.7299   14.6298 C   0  0  0  0  0  0  0  0  0  0  0  0
   11.0578    2.5364   14.3519 C   0  0  0  0  0  0  0  0  0  0  0  0
   10.7637    2.7836   12.5573 S   0  0  0  0  0  0  0  0  0  0  0  0
   11.6459    1.2204   14.6541 C   0  0  0  0  0  0  0  0  0  0  0  0
   11.1562    0.0868   13.7984 C   0  0  0  0  0  0  0  0  0  0  0  0
   11.6851   -1.2066   14.3561 C   0  0  0  0  0  0  0  0  0  0  0  0
   11.2509   -2.4312   13.6182 C   0  0  0  0  0  0  0  0  0  0  0  0
   11.6763   -3.7046   14.1949 C   0  0  0  0  0  0  0  0  0  0  0  0
   11.2976   -4.8439   13.8230 O   0  0  0  0  0  0  0  0  0  0  0  0
   12.5833   -3.6724   15.2533 O   0  0  0  0  0  0  0  0  0  0  0  0
   11.7171    4.1057   16.0264 N   0  0  0  0  0  0  0  0  0  0  0  0
   11.3761    5.4853   16.0835 C   0  0  0  0  0  0  0  0  0  0  0  0
   11.5375    6.2024   17.0958 O   0  0  0  0  0  0  0  0  0  0  0  0
   10.8458    5.8366   14.8115 N   0  0  0  0  0  0  0  0  0  0  0  0
  1  2  1  0
  2  3  1  0
  3  4  1  0
  4  5  1  0
  4  6  1  0
  6  7  1  0
  7  8  1  0
  8  9  1  0
  9 10  1  0
 10 11  2  0
 10 12  1  0
  3 13  1  0
 13 14  1  0
 14 15  2  0
 14 16  1  0
  5  1  1  0
 16  2  1  0
M  END
$$$$
