
     RDKit          3D

 16 17  0  0  0  0  0  0  0  0999 V2000
   12.8411   -6.5134   12.4429 C   0  0  0  0  0  0  0  0  0  0  0  0
   12.4864   -6.6045   13.8721 C   0  0  0  0  0  0  0  0  0  0  0  0
   13.5892   -6.3104   14.7848 C   0  0  0  0  0  0  0  0  0  0  0  0
   14.8973   -6.2917   14.1029 C   0  0  0  0  0  0  0  0  0  0  0  0
   14.3946   -5.5380   12.5067 S   0  0  0  0  0  0  0  0  0  0  0  0
   15.9945   -5.5579   14.7558 C   0  0  0  0  0  0  0  0  0  0  0  0
   17.2265   -5.3663   13.9177 C   0  0  0  0  0  0  0  0  0  0  0  0
   18.1953   -4.4948   14.6699 C   0  0  0  0  0  0  0  0  0  0  0  0
   19.4816   -4.2285   13.9579 C   0  0  0  0  0  0  0  0  0  0  0  0
   20.4195   -3.3465   14.6492 C   0  0  0  0  0  0  0  0  0  0  0  0
   20.5201   -3.2107   15.8946 O   0  0  0  0  0  0  0  0  0  0  0  0
   21.2880   -2.5794   13.8740 O   0  0  0  0  0  0  0  0  0  0  0  0
   13.5763   -7.3890   15.7618 N   0  0  0  0  0  0  0  0  0  0  0  0
   12.4157   -8.1809   15.5410 C   0  0  0  0  0  0  0  0  0  0  0  0
   11.9063   -8.9281   16.4054 O   0  0  0  0  0  0  0  0  0  0  0  0
   11.9972   -7.9431   14.2029 N   0  0  0  0  0  0  0  0  0  0  0  0
  1  2  1  0
  2  3  1  0
  3  4  1  0
  4  5  1  0
  4  6  1  0
  6  7  1  0
  7  8  1  0
  8  9  1  0
  9 10  1  0
 10 11  2  0
 10 12  1  0
  3 13  1  0
 13 14  1  0
 14 15  2  0
 14 16  1  0
  5  1  1  0
 16  2  1  0
M  END
$$$$
