
     RDKit          3D

 16 17  0  0  0  0  0  0  0  0999 V2000
   11.9689    0.8759   -6.9437 C   0  0  0  0  0  0  0  0  0  0  0  0
   12.2451    0.4960   -8.3424 C   0  0  0  0  0  0  0  0  0  0  0  0
   11.5214   -0.6895   -8.7971 C   0  0  0  0  0  0  0  0  0  0  0  0
   10.9119   -1.4410   -7.6834 C   0  0  0  0  0  0  0  0  0  0  0  0
   10.4126   -0.0382   -6.6104 S   0  0  0  0  0  0  0  0  0  0  0  0
    9.7888   -2.3385   -8.0025 C   0  0  0  0  0  0  0  0  0  0  0  0
    9.4744   -3.3701   -6.9566 C   0  0  0  0  0  0  0  0  0  0  0  0
    8.3302   -4.2191   -7.4399 C   0  0  0  0  0  0  0  0  0  0  0  0
    8.0140   -5.3957   -6.5748 C   0  0  0  0  0  0  0  0  0  0  0  0
    6.8574   -6.1907   -6.9818 C   0  0  0  0  0  0  0  0  0  0  0  0
    6.1335   -5.9758   -7.9865 O   0  0  0  0  0  0  0  0  0  0  0  0
    6.5110   -7.2900   -6.1972 O   0  0  0  0  0  0  0  0  0  0  0  0
   12.5222   -1.5247   -9.4444 N   0  0  0  0  0  0  0  0  0  0  0  0
   13.7369   -0.7893   -9.5247 C   0  0  0  0  0  0  0  0  0  0  0  0
   14.6550   -1.0452  -10.3350 O   0  0  0  0  0  0  0  0  0  0  0  0
   13.6710    0.2334   -8.5388 N   0  0  0  0  0  0  0  0  0  0  0  0
  1  2  1  0
  2  3  1  0
  3  4  1  0
  4  5  1  0
  4  6  1  0
  6  7  1  0
  7  8  1  0
  8  9  1  0
  9 10  1  0
 10 11  2  0
 10 12  1  0
  3 13  1  0
 13 14  1  0
 14 15  2  0
 14 16  1  0
  5  1  1  0
 16  2  1  0
M  END
$$$$
