
     RDKit          3D

 16 17  0  0  0  0  0  0  0  0999 V2000
    8.4614    3.9606  -14.0586 C   0  0  0  0  0  0  0  0  0  0  0  0
    9.8745    3.5835  -14.2524 C   0  0  0  0  0  0  0  0  0  0  0  0
   10.2004    2.2282  -13.8134 C   0  0  0  0  0  0  0  0  0  0  0  0
    9.1355    1.6313  -12.9851 C   0  0  0  0  0  0  0  0  0  0  0  0
    7.6655    2.3212  -13.8405 S   0  0  0  0  0  0  0  0  0  0  0  0
    9.0952    0.1627  -12.8837 C   0  0  0  0  0  0  0  0  0  0  0  0
    8.0379   -0.3887  -11.9699 C   0  0  0  0  0  0  0  0  0  0  0  0
    8.5521   -0.3562  -10.5563 C   0  0  0  0  0  0  0  0  0  0  0  0
    9.5382   -1.4283  -10.2235 C   0  0  0  0  0  0  0  0  0  0  0  0
    9.0952   -2.7984  -10.4724 C   0  0  0  0  0  0  0  0  0  0  0  0
    7.9244   -3.1519  -10.7620 O   0  0  0  0  0  0  0  0  0  0  0  0
   10.0424   -3.8177  -10.3850 O   0  0  0  0  0  0  0  0  0  0  0  0
   11.4076    2.3647  -13.0121 N   0  0  0  0  0  0  0  0  0  0  0  0
   11.8696    3.7054  -13.1209 C   0  0  0  0  0  0  0  0  0  0  0  0
   13.0464    4.0590  -12.8861 O   0  0  0  0  0  0  0  0  0  0  0  0
   10.7609    4.4964  -13.5301 N   0  0  0  0  0  0  0  0  0  0  0  0
  1  2  1  0
  2  3  1  0
  3  4  1  0
  4  5  1  0
  4  6  1  0
  6  7  1  0
  7  8  1  0
  8  9  1  0
  9 10  1  0
 10 11  2  0
 10 12  1  0
  3 13  1  0
 13 14  1  0
 14 15  2  0
 14 16  1  0
  5  1  1  0
 16  2  1  0
M  END
$$$$
