
     RDKit          3D

 16 17  0  0  0  0  0  0  0  0999 V2000
   -0.8347    6.5101   -3.1875 C   0  0  0  0  0  0  0  0  0  0  0  0
   -1.0603    7.6876   -2.3276 C   0  0  0  0  0  0  0  0  0  0  0  0
   -1.4218    8.9025   -3.0550 C   0  0  0  0  0  0  0  0  0  0  0  0
   -1.1817    8.7847   -4.5059 C   0  0  0  0  0  0  0  0  0  0  0  0
   -1.6515    7.0271   -4.7477 S   0  0  0  0  0  0  0  0  0  0  0  0
   -1.9219    9.6969   -5.3942 C   0  0  0  0  0  0  0  0  0  0  0  0
   -1.7572    9.4350   -6.8643 C   0  0  0  0  0  0  0  0  0  0  0  0
   -2.4268   10.5416   -7.6330 C   0  0  0  0  0  0  0  0  0  0  0  0
   -2.2276   10.4861   -9.1128 C   0  0  0  0  0  0  0  0  0  0  0  0
   -0.9655   11.0343   -9.6049 C   0  0  0  0  0  0  0  0  0  0  0  0
   -0.0899   11.6056   -8.9074 O   0  0  0  0  0  0  0  0  0  0  0  0
   -0.6913   10.9224  -10.9672 O   0  0  0  0  0  0  0  0  0  0  0  0
   -0.5623    9.9442   -2.5126 N   0  0  0  0  0  0  0  0  0  0  0  0
    0.1435    9.4096   -1.3997 C   0  0  0  0  0  0  0  0  0  0  0  0
    0.6546   10.1085   -0.4966 O   0  0  0  0  0  0  0  0  0  0  0  0
    0.1346    7.9946   -1.5410 N   0  0  0  0  0  0  0  0  0  0  0  0
  1  2  1  0
  2  3  1  0
  3  4  1  0
  4  5  1  0
  4  6  1  0
  6  7  1  0
  7  8  1  0
  8  9  1  0
  9 10  1  0
 10 11  2  0
 10 12  1  0
  3 13  1  0
 13 14  1  0
 14 15  2  0
 14 16  1  0
  5  1  1  0
 16  2  1  0
M  END
$$$$
