
     RDKit          3D

 16 17  0  0  0  0  0  0  0  0999 V2000
   12.4685    8.2445  -23.4540 C   0  0  0  0  0  0  0  0  0  0  0  0
   11.0637    7.8165  -23.5959 C   0  0  0  0  0  0  0  0  0  0  0  0
   10.0936    8.7306  -22.9966 C   0  0  0  0  0  0  0  0  0  0  0  0
   10.7269    9.7226  -22.1070 C   0  0  0  0  0  0  0  0  0  0  0  0
   12.2758   10.0232  -23.0445 S   0  0  0  0  0  0  0  0  0  0  0  0
    9.9816   10.9624  -21.8307 C   0  0  0  0  0  0  0  0  0  0  0  0
   10.0335   11.9981  -22.9177 C   0  0  0  0  0  0  0  0  0  0  0  0
    9.3978   13.2648  -22.4126 C   0  0  0  0  0  0  0  0  0  0  0  0
    9.4888   14.4273  -23.3470 C   0  0  0  0  0  0  0  0  0  0  0  0
    8.8816   15.6701  -22.8757 C   0  0  0  0  0  0  0  0  0  0  0  0
    8.1492   15.7929  -21.8618 O   0  0  0  0  0  0  0  0  0  0  0  0
    9.1257   16.8339  -23.6036 O   0  0  0  0  0  0  0  0  0  0  0  0
    9.2046    7.8861  -22.2127 N   0  0  0  0  0  0  0  0  0  0  0  0
    9.5260    6.5266  -22.4793 C   0  0  0  0  0  0  0  0  0  0  0  0
    8.7403    5.5728  -22.2839 O   0  0  0  0  0  0  0  0  0  0  0  0
   10.8551    6.5037  -22.9845 N   0  0  0  0  0  0  0  0  0  0  0  0
  1  2  1  0
  2  3  1  0
  3  4  1  0
  4  5  1  0
  4  6  1  0
  6  7  1  0
  7  8  1  0
  8  9  1  0
  9 10  1  0
 10 11  2  0
 10 12  1  0
  3 13  1  0
 13 14  1  0
 14 15  2  0
 14 16  1  0
  5  1  1  0
 16  2  1  0
M  END
$$$$
