
     RDKit          3D

 16 17  0  0  0  0  0  0  0  0999 V2000
   10.7407    0.0724   -5.9223 C   0  0  0  0  0  0  0  0  0  0  0  0
   10.9692   -1.2557   -6.5229 C   0  0  0  0  0  0  0  0  0  0  0  0
   11.0541   -1.2489   -7.9819 C   0  0  0  0  0  0  0  0  0  0  0  0
   10.5845    0.0205   -8.5691 C   0  0  0  0  0  0  0  0  0  0  0  0
   11.2108    1.1897   -7.3005 S   0  0  0  0  0  0  0  0  0  0  0  0
   11.0481    0.3548   -9.9263 C   0  0  0  0  0  0  0  0  0  0  0  0
   10.8593    1.7883  -10.3341 C   0  0  0  0  0  0  0  0  0  0  0  0
   11.1623    1.9199  -11.8020 C   0  0  0  0  0  0  0  0  0  0  0  0
   11.0177    3.3024  -12.3501 C   0  0  0  0  0  0  0  0  0  0  0  0
   11.4030    3.4746  -13.7491 C   0  0  0  0  0  0  0  0  0  0  0  0
   10.6695    3.9269  -14.6640 O   0  0  0  0  0  0  0  0  0  0  0  0
   12.6964    3.1098  -14.1205 O   0  0  0  0  0  0  0  0  0  0  0  0
   10.1830   -2.3287   -8.4216 N   0  0  0  0  0  0  0  0  0  0  0  0
    9.7468   -3.0488   -7.2754 C   0  0  0  0  0  0  0  0  0  0  0  0
    9.3190   -4.2239   -7.3109 O   0  0  0  0  0  0  0  0  0  0  0  0
    9.8990   -2.1839   -6.1569 N   0  0  0  0  0  0  0  0  0  0  0  0
  1  2  1  0
  2  3  1  0
  3  4  1  0
  4  5  1  0
  4  6  1  0
  6  7  1  0
  7  8  1  0
  8  9  1  0
  9 10  1  0
 10 11  2  0
 10 12  1  0
  3 13  1  0
 13 14  1  0
 14 15  2  0
 14 16  1  0
  5  1  1  0
 16  2  1  0
M  END
$$$$
