
     RDKit          3D

 16 17  0  0  0  0  0  0  0  0999 V2000
   10.8946    1.1946   -7.4719 C   0  0  0  0  0  0  0  0  0  0  0  0
   12.2611    0.6612   -7.6299 C   0  0  0  0  0  0  0  0  0  0  0  0
   12.8350    0.8631   -8.9587 C   0  0  0  0  0  0  0  0  0  0  0  0
   11.8256    1.2725   -9.9537 C   0  0  0  0  0  0  0  0  0  0  0  0
   10.7777    2.3460   -8.8964 S   0  0  0  0  0  0  0  0  0  0  0  0
   12.3039    1.9620  -11.1640 C   0  0  0  0  0  0  0  0  0  0  0  0
   11.3430    2.9499  -11.7619 C   0  0  0  0  0  0  0  0  0  0  0  0
   12.0460    3.7136  -12.8510 C   0  0  0  0  0  0  0  0  0  0  0  0
   11.1957    4.7144  -13.5638 C   0  0  0  0  0  0  0  0  0  0  0  0
    9.9995    4.1834  -14.2138 C   0  0  0  0  0  0  0  0  0  0  0  0
    9.6971    2.9680  -14.3185 O   0  0  0  0  0  0  0  0  0  0  0  0
    9.1020    5.0917  -14.7735 O   0  0  0  0  0  0  0  0  0  0  0  0
   13.3832   -0.4300   -9.3400 N   0  0  0  0  0  0  0  0  0  0  0  0
   13.2952   -1.3028   -8.2206 C   0  0  0  0  0  0  0  0  0  0  0  0
   13.9974   -2.3284   -8.0787 O   0  0  0  0  0  0  0  0  0  0  0  0
   12.2935   -0.7763   -7.3593 N   0  0  0  0  0  0  0  0  0  0  0  0
  1  2  1  0
  2  3  1  0
  3  4  1  0
  4  5  1  0
  4  6  1  0
  6  7  1  0
  7  8  1  0
  8  9  1  0
  9 10  1  0
 10 11  2  0
 10 12  1  0
  3 13  1  0
 13 14  1  0
 14 15  2  0
 14 16  1  0
  5  1  1  0
 16  2  1  0
M  END
$$$$
