serotonin
     RDKit          3D

 13 14  0  0  0  0  0  0  0  0999 V2000
   99.6093  113.6908  110.3977 N   0  0  0  0  0  0  0  0  0  0  0  0
   99.3192  114.0555  111.7720 C   0  0  0  0  0  0  0  0  0  0  0  0
   97.8088  114.1556  111.8628 C   0  0  0  0  0  0  0  0  0  0  0  0
   97.3377  114.7984  113.1028 C   0  0  0  0  0  0  0  0  0  0  0  0
   96.4965  114.1448  114.0112 C   0  0  0  0  0  0  0  0  0  0  0  0
   96.2496  114.9915  115.0429 N   0  0  0  0  0  0  0  0  0  0  0  0
   96.9005  116.1317  114.8092 C   0  0  0  0  0  0  0  0  0  0  0  0
   96.9370  117.2785  115.5937 C   0  0  0  0  0  0  0  0  0  0  0  0
   97.7023  118.3395  115.1119 C   0  0  0  0  0  0  0  0  0  0  0  0
   98.3872  118.2547  113.9192 C   0  0  0  0  0  0  0  0  0  0  0  0
   99.1261  119.3484  113.5040 O   0  0  0  0  0  0  0  0  0  0  0  0
   98.3465  117.1105  113.1443 C   0  0  0  0  0  0  0  0  0  0  0  0
   97.5868  116.0505  113.6154 C   0  0  0  0  0  0  0  0  0  0  0  0
  2  1  1  1
  2  3  1  0
  3  4  1  1
  4  5  2  0
  5  6  1  0
  6  7  1  0
  7  8  2  0
  8  9  1  0
  9 10  2  0
 10 11  1  0
 10 12  1  0
 12 13  2  0
 13  4  1  0
 13  7  1  0
M  END
$$$$
