serotonin
     RDKit          3D

 13 14  0  0  0  0  0  0  0  0999 V2000
  101.6593  113.5925  108.1195 N   0  0  0  0  0  0  0  0  0  0  0  0
  101.2295  113.7598  109.4955 C   0  0  0  0  0  0  0  0  0  0  0  0
   99.8327  114.3456  109.4235 C   0  0  0  0  0  0  0  0  0  0  0  0
   99.2758  114.6961  110.7426 C   0  0  0  0  0  0  0  0  0  0  0  0
   98.3255  113.8971  111.3895 C   0  0  0  0  0  0  0  0  0  0  0  0
   98.0199  114.4811  112.5761 N   0  0  0  0  0  0  0  0  0  0  0  0
   98.7388  115.5989  112.6860 C   0  0  0  0  0  0  0  0  0  0  0  0
   98.7514  116.5150  113.7313 C   0  0  0  0  0  0  0  0  0  0  0  0
   99.6039  117.6091  113.5913 C   0  0  0  0  0  0  0  0  0  0  0  0
  100.3932  117.7731  112.4738 C   0  0  0  0  0  0  0  0  0  0  0  0
  101.2146  118.8844  112.4041 O   0  0  0  0  0  0  0  0  0  0  0  0
  100.3758  116.8574  111.4382 C   0  0  0  0  0  0  0  0  0  0  0  0
   99.5299  115.7665  111.5685 C   0  0  0  0  0  0  0  0  0  0  0  0
  2  1  1  1
  2  3  1  0
  3  4  1  1
  4  5  2  0
  5  6  1  0
  6  7  1  0
  7  8  2  0
  8  9  1  0
  9 10  2  0
 10 11  1  0
 10 12  1  0
 12 13  2  0
 13  4  1  0
 13  7  1  0
M  END
$$$$
