serotonin
     RDKit          3D

 13 14  0  0  0  0  0  0  0  0999 V2000
  101.7780  113.8683  107.9713 N   0  0  0  0  0  0  0  0  0  0  0  0
  101.4447  114.0439  109.3727 C   0  0  0  0  0  0  0  0  0  0  0  0
   99.9308  114.1065  109.4325 C   0  0  0  0  0  0  0  0  0  0  0  0
   99.4129  114.5140  110.7510 C   0  0  0  0  0  0  0  0  0  0  0  0
   98.5920  113.6821  111.5219 C   0  0  0  0  0  0  0  0  0  0  0  0
   98.2910  114.3350  112.6732 N   0  0  0  0  0  0  0  0  0  0  0  0
   98.8894  115.5264  112.6434 C   0  0  0  0  0  0  0  0  0  0  0  0
   98.8604  116.5286  113.6062 C   0  0  0  0  0  0  0  0  0  0  0  0
   99.5802  117.6880  113.3213 C   0  0  0  0  0  0  0  0  0  0  0  0
  100.2841  117.8321  112.1455 C   0  0  0  0  0  0  0  0  0  0  0  0
  100.9751  119.0115  111.9311 O   0  0  0  0  0  0  0  0  0  0  0  0
  100.3089  116.8307  111.1927 C   0  0  0  0  0  0  0  0  0  0  0  0
   99.5947  115.6743  111.4672 C   0  0  0  0  0  0  0  0  0  0  0  0
  2  1  1  1
  2  3  1  0
  3  4  1  1
  4  5  2  0
  5  6  1  0
  6  7  1  0
  7  8  2  0
  8  9  1  0
  9 10  2  0
 10 11  1  0
 10 12  1  0
 12 13  2  0
 13  4  1  0
 13  7  1  0
M  END
$$$$
