serotonin
     RDKit          3D

 13 14  0  0  0  0  0  0  0  0999 V2000
   98.7895  113.6868  111.1029 N   0  0  0  0  0  0  0  0  0  0  0  0
   98.6475  114.5885  112.2311 C   0  0  0  0  0  0  0  0  0  0  0  0
   98.7309  113.7171  113.4693 C   0  0  0  0  0  0  0  0  0  0  0  0
   98.4139  114.4379  114.7155 C   0  0  0  0  0  0  0  0  0  0  0  0
   99.3660  115.2026  115.4001 C   0  0  0  0  0  0  0  0  0  0  0  0
   98.7691  115.7390  116.4948 N   0  0  0  0  0  0  0  0  0  0  0  0
   97.4970  115.3393  116.5119 C   0  0  0  0  0  0  0  0  0  0  0  0
   96.5119  115.6421  117.4446 C   0  0  0  0  0  0  0  0  0  0  0  0
   95.2522  115.0874  117.2235 C   0  0  0  0  0  0  0  0  0  0  0  0
   94.9975  114.2806  116.1358 C   0  0  0  0  0  0  0  0  0  0  0  0
   93.7229  113.7649  115.9815 O   0  0  0  0  0  0  0  0  0  0  0  0
   95.9822  113.9842  115.2118 C   0  0  0  0  0  0  0  0  0  0  0  0
   97.2387  114.5309  115.4245 C   0  0  0  0  0  0  0  0  0  0  0  0
  2  1  1  1
  2  3  1  0
  3  4  1  1
  4  5  2  0
  5  6  1  0
  6  7  1  0
  7  8  2  0
  8  9  1  0
  9 10  2  0
 10 11  1  0
 10 12  1  0
 12 13  2  0
 13  4  1  0
 13  7  1  0
M  END
$$$$
