serotonin
     RDKit          3D

 13 14  0  0  0  0  0  0  0  0999 V2000
   99.5232  113.5360  109.5164 N   0  0  0  0  0  0  0  0  0  0  0  0
  100.3625  113.9667  108.4136 C   0  0  0  0  0  0  0  0  0  0  0  0
  101.6797  113.2357  108.5871 C   0  0  0  0  0  0  0  0  0  0  0  0
  102.7387  113.7134  107.6798 C   0  0  0  0  0  0  0  0  0  0  0  0
  103.0014  113.1008  106.4487 C   0  0  0  0  0  0  0  0  0  0  0  0
  104.0200  113.7708  105.8522 N   0  0  0  0  0  0  0  0  0  0  0  0
  104.3925  114.7645  106.6598 C   0  0  0  0  0  0  0  0  0  0  0  0
  105.3951  115.7062  106.4601 C   0  0  0  0  0  0  0  0  0  0  0  0
  105.5792  116.6455  107.4736 C   0  0  0  0  0  0  0  0  0  0  0  0
  104.8063  116.6400  108.6145 C   0  0  0  0  0  0  0  0  0  0  0  0
  105.0467  117.6031  109.5783 O   0  0  0  0  0  0  0  0  0  0  0  0
  103.8105  115.7004  108.8059 C   0  0  0  0  0  0  0  0  0  0  0  0
  103.6210  114.7615  107.8033 C   0  0  0  0  0  0  0  0  0  0  0  0
  2  1  1  1
  2  3  1  0
  3  4  1  1
  4  5  2  0
  5  6  1  0
  6  7  1  0
  7  8  2  0
  8  9  1  0
  9 10  2  0
 10 11  1  0
 10 12  1  0
 12 13  2  0
 13  4  1  0
 13  7  1  0
M  END
$$$$
