serotonin
     RDKit          3D

 13 14  0  0  0  0  0  0  0  0999 V2000
  103.0240  114.7462  107.0610 N   0  0  0  0  0  0  0  0  0  0  0  0
  102.5684  114.3219  108.3718 C   0  0  0  0  0  0  0  0  0  0  0  0
  101.0573  114.2376  108.2766 C   0  0  0  0  0  0  0  0  0  0  0  0
  100.3999  114.0142  109.5769 C   0  0  0  0  0  0  0  0  0  0  0  0
   99.6597  112.8581  109.8519 C   0  0  0  0  0  0  0  0  0  0  0  0
   99.1917  112.9486  111.1229 N   0  0  0  0  0  0  0  0  0  0  0  0
   99.6112  114.1046  111.6385 C   0  0  0  0  0  0  0  0  0  0  0  0
   99.3734  114.6176  112.9082 C   0  0  0  0  0  0  0  0  0  0  0  0
   99.9342  115.8617  113.1933 C   0  0  0  0  0  0  0  0  0  0  0  0
  100.6856  116.5469  112.2635 C   0  0  0  0  0  0  0  0  0  0  0  0
  101.2104  117.7773  112.6172 O   0  0  0  0  0  0  0  0  0  0  0  0
  100.9184  116.0301  111.0025 C   0  0  0  0  0  0  0  0  0  0  0  0
  100.3635  114.7935  110.7099 C   0  0  0  0  0  0  0  0  0  0  0  0
  2  1  1  1
  2  3  1  0
  3  4  1  1
  4  5  2  0
  5  6  1  0
  6  7  1  0
  7  8  2  0
  8  9  1  0
  9 10  2  0
 10 11  1  0
 10 12  1  0
 12 13  2  0
 13  4  1  0
 13  7  1  0
M  END
$$$$
