serotonin
     RDKit          3D

 13 14  0  0  0  0  0  0  0  0999 V2000
   99.3987  114.0562  111.1227 N   0  0  0  0  0  0  0  0  0  0  0  0
   99.1662  113.7930  112.5308 C   0  0  0  0  0  0  0  0  0  0  0  0
   99.2934  115.1336  113.2280 C   0  0  0  0  0  0  0  0  0  0  0  0
   98.8793  115.1001  114.6423 C   0  0  0  0  0  0  0  0  0  0  0  0
   99.7593  115.4073  115.6868 C   0  0  0  0  0  0  0  0  0  0  0  0
   99.0821  115.2921  116.8575 N   0  0  0  0  0  0  0  0  0  0  0  0
   97.8294  114.9297  116.5785 C   0  0  0  0  0  0  0  0  0  0  0  0
   96.7837  114.6952  117.4637 C   0  0  0  0  0  0  0  0  0  0  0  0
   95.5629  114.3240  116.9023 C   0  0  0  0  0  0  0  0  0  0  0  0
   95.4019  114.1965  115.5397 C   0  0  0  0  0  0  0  0  0  0  0  0
   94.1610  113.8238  115.0544 O   0  0  0  0  0  0  0  0  0  0  0  0
   96.4465  114.4319  114.6653 C   0  0  0  0  0  0  0  0  0  0  0  0
   97.6649  114.8006  115.2151 C   0  0  0  0  0  0  0  0  0  0  0  0
  2  1  1  1
  2  3  1  0
  3  4  1  1
  4  5  2  0
  5  6  1  0
  6  7  1  0
  7  8  2  0
  8  9  1  0
  9 10  2  0
 10 11  1  0
 10 12  1  0
 12 13  2  0
 13  4  1  0
 13  7  1  0
M  END
$$$$
