serotonin
     RDKit          3D

 13 14  0  0  0  0  0  0  0  0999 V2000
  102.9320  114.5779  107.1653 N   0  0  0  0  0  0  0  0  0  0  0  0
  102.2229  113.8359  108.1912 C   0  0  0  0  0  0  0  0  0  0  0  0
  100.7777  114.2865  108.1025 C   0  0  0  0  0  0  0  0  0  0  0  0
   99.9174  113.7048  109.1486 C   0  0  0  0  0  0  0  0  0  0  0  0
   99.0701  112.6181  108.9014 C   0  0  0  0  0  0  0  0  0  0  0  0
   98.4216  112.3170  110.0552 N   0  0  0  0  0  0  0  0  0  0  0  0
   98.8325  113.1675  110.9966 C   0  0  0  0  0  0  0  0  0  0  0  0
   98.4388  113.2340  112.3279 C   0  0  0  0  0  0  0  0  0  0  0  0
   99.0299  114.2299  113.1040 C   0  0  0  0  0  0  0  0  0  0  0  0
   99.9569  115.1030  112.5775 C   0  0  0  0  0  0  0  0  0  0  0  0
  100.5012  116.0665  113.4081 O   0  0  0  0  0  0  0  0  0  0  0  0
  100.3441  115.0305  111.2524 C   0  0  0  0  0  0  0  0  0  0  0  0
   99.7604  114.0435  110.4727 C   0  0  0  0  0  0  0  0  0  0  0  0
  2  1  1  1
  2  3  1  0
  3  4  1  1
  4  5  2  0
  5  6  1  0
  6  7  1  0
  7  8  2  0
  8  9  1  0
  9 10  2  0
 10 11  1  0
 10 12  1  0
 12 13  2  0
 13  4  1  0
 13  7  1  0
M  END
$$$$
