serotonin
     RDKit          3D

 13 14  0  0  0  0  0  0  0  0999 V2000
   99.1901  113.5020  110.8164 N   0  0  0  0  0  0  0  0  0  0  0  0
   99.0953  114.9266  111.0764 C   0  0  0  0  0  0  0  0  0  0  0  0
  100.0285  115.1970  112.2406 C   0  0  0  0  0  0  0  0  0  0  0  0
   99.8614  116.5396  112.8258 C   0  0  0  0  0  0  0  0  0  0  0  0
  100.7362  117.5944  112.5396 C   0  0  0  0  0  0  0  0  0  0  0  0
  100.3143  118.6899  113.2211 N   0  0  0  0  0  0  0  0  0  0  0  0
   99.2226  118.3553  113.9099 C   0  0  0  0  0  0  0  0  0  0  0  0
   98.4538  119.1558  114.7467 C   0  0  0  0  0  0  0  0  0  0  0  0
   97.3530  118.5500  115.3506 C   0  0  0  0  0  0  0  0  0  0  0  0
   97.0436  117.2256  115.1287 C   0  0  0  0  0  0  0  0  0  0  0  0
   95.9358  116.6921  115.7630 O   0  0  0  0  0  0  0  0  0  0  0  0
   97.8128  116.4357  114.2947 C   0  0  0  0  0  0  0  0  0  0  0  0
   98.9104  117.0298  113.6905 C   0  0  0  0  0  0  0  0  0  0  0  0
  2  1  1  1
  2  3  1  0
  3  4  1  1
  4  5  2  0
  5  6  1  0
  6  7  1  0
  7  8  2  0
  8  9  1  0
  9 10  2  0
 10 11  1  0
 10 12  1  0
 12 13  2  0
 13  4  1  0
 13  7  1  0
M  END
$$$$
