serotonin
     RDKit          3D

 13 14  0  0  0  0  0  0  0  0999 V2000
  100.4140  114.7665  110.2352 N   0  0  0  0  0  0  0  0  0  0  0  0
  100.1640  114.1358  111.5180 C   0  0  0  0  0  0  0  0  0  0  0  0
   98.6956  114.3711  111.8147 C   0  0  0  0  0  0  0  0  0  0  0  0
   98.2800  113.8803  113.1411 C   0  0  0  0  0  0  0  0  0  0  0  0
   98.0192  112.5275  113.3900 C   0  0  0  0  0  0  0  0  0  0  0  0
   97.6678  112.3982  114.6947 N   0  0  0  0  0  0  0  0  0  0  0  0
   97.7019  113.6075  115.2557 C   0  0  0  0  0  0  0  0  0  0  0  0
   97.4172  113.9546  116.5712 C   0  0  0  0  0  0  0  0  0  0  0  0
   97.5312  115.3049  116.8985 C   0  0  0  0  0  0  0  0  0  0  0  0
   97.9070  116.2465  115.9652 C   0  0  0  0  0  0  0  0  0  0  0  0
   97.9985  117.5687  116.3625 O   0  0  0  0  0  0  0  0  0  0  0  0
   98.1892  115.8937  114.6586 C   0  0  0  0  0  0  0  0  0  0  0  0
   98.0773  114.5528  114.3239 C   0  0  0  0  0  0  0  0  0  0  0  0
  2  1  1  1
  2  3  1  0
  3  4  1  1
  4  5  2  0
  5  6  1  0
  6  7  1  0
  7  8  2  0
  8  9  1  0
  9 10  2  0
 10 11  1  0
 10 12  1  0
 12 13  2  0
 13  4  1  0
 13  7  1  0
M  END
$$$$
