imatinib
     RDKit          3D

 37 41  0  0  0  0  0  0  0  0999 V2000
   15.6266   10.0874   18.5667 C   0  0  0  0  0  0  0  0  0  0  0  0
   14.7810   11.2775   18.7847 C   0  0  0  0  0  0  0  0  0  0  0  0
   13.8757   11.2639   19.8218 C   0  0  0  0  0  0  0  0  0  0  0  0
   13.0630   12.3282   20.0810 C   0  0  0  0  0  0  0  0  0  0  0  0
   13.1730   13.4339   19.2663 C   0  0  0  0  0  0  0  0  0  0  0  0
   12.3413   14.5843   19.4930 N   0  0  0  0  0  0  0  0  0  0  0  0
   11.8686   15.2912   18.3539 C   0  0  0  0  0  0  0  0  0  0  0  0
   12.4004   15.0667   17.2370 O   0  0  0  0  0  0  0  0  0  0  0  0
   10.7911   16.2715   18.4086 C   0  0  0  0  0  0  0  0  0  0  0  0
   10.4240   16.8817   17.2316 C   0  0  0  0  0  0  0  0  0  0  0  0
    9.3955   17.8214   17.2530 C   0  0  0  0  0  0  0  0  0  0  0  0
    8.7362   18.1546   18.4264 C   0  0  0  0  0  0  0  0  0  0  0  0
    7.6592   19.1640   18.3236 C   0  0  0  0  0  0  0  0  0  0  0  0
    8.0313   20.3652   18.9651 N   0  0  0  0  0  0  0  0  0  0  0  0
    7.0398   21.3899   18.9918 C   0  0  0  0  0  0  0  0  0  0  0  0
    7.5024   22.6634   19.6402 C   0  0  0  0  0  0  0  0  0  0  0  0
    8.7059   22.4998   20.4019 N   0  0  0  0  0  0  0  0  0  0  0  0
    8.4939   21.7259   21.5914 C   0  0  0  0  0  0  0  0  0  0  0  0
    9.7670   22.0011   19.5562 C   0  0  0  0  0  0  0  0  0  0  0  0
    9.3663   20.8013   18.7564 C   0  0  0  0  0  0  0  0  0  0  0  0
    9.1144   17.5382   19.5863 C   0  0  0  0  0  0  0  0  0  0  0  0
   10.1335   16.6058   19.5708 C   0  0  0  0  0  0  0  0  0  0  0  0
   14.0925   13.4419   18.2168 C   0  0  0  0  0  0  0  0  0  0  0  0
   14.9182   12.3808   17.9406 C   0  0  0  0  0  0  0  0  0  0  0  0
   15.8617   12.3389   16.8932 N   0  0  0  0  0  0  0  0  0  0  0  0
   17.2393   12.6143   16.9807 C   0  0  0  0  0  0  0  0  0  0  0  0
   17.8831   13.1093   18.0336 N   0  0  0  0  0  0  0  0  0  0  0  0
   19.1991   13.3682   18.1037 C   0  0  0  0  0  0  0  0  0  0  0  0
   19.9500   13.0959   16.9817 C   0  0  0  0  0  0  0  0  0  0  0  0
   19.3391   12.5820   15.8601 C   0  0  0  0  0  0  0  0  0  0  0  0
   18.0169   12.3563   15.8850 N   0  0  0  0  0  0  0  0  0  0  0  0
   20.1043   12.2830   14.6574 C   0  0  0  0  0  0  0  0  0  0  0  0
   21.3934   12.6834   14.4427 C   0  0  0  0  0  0  0  0  0  0  0  0
   22.0550   12.3633   13.2803 C   0  0  0  0  0  0  0  0  0  0  0  0
   21.4338   11.6287   12.2997 C   0  0  0  0  0  0  0  0  0  0  0  0
   20.1695   11.2324   12.5031 N   0  0  0  0  0  0  0  0  0  0  0  0
   19.5073   11.5392   13.6393 C   0  0  0  0  0  0  0  0  0  0  0  0
  1  2  1  1
  2  3  2  0
  3  4  1  0
  4  5  2  0
  5  6  1  0
  6  7  1  0
  7  8  2  0
  7  9  1  0
  9 10  2  0
 10 11  1  0
 11 12  2  0
 12 13  1  0
 13 14  1  1
 15 14  1  1
 15 16  1  0
 16 17  1  1
 18 17  1  6
 19 17  1  6
 19 20  1  0
 12 21  1  0
 21 22  2  0
  5 23  1  0
 23 24  2  0
 24 25  1  0
 25 26  1  0
 26 27  2  0
 27 28  1  0
 28 29  2  0
 29 30  1  0
 30 31  2  0
 30 32  1  0
 32 33  2  0
 33 34  1  0
 34 35  2  0
 35 36  1  0
 36 37  2  0
 24  2  1  0
 22  9  1  0
 20 14  1  1
 31 26  1  0
 37 32  1  0
M  END
$$$$
