imatinib
     RDKit          3D

 37 41  0  0  0  0  0  0  0  0999 V2000
   19.6353   29.7264   -1.3327 C   0  0  0  0  0  0  0  0  0  0  0  0
   21.0357   30.1549   -1.1478 C   0  0  0  0  0  0  0  0  0  0  0  0
   21.4345   30.5914    0.0955 C   0  0  0  0  0  0  0  0  0  0  0  0
   22.7125   31.0018    0.3379 C   0  0  0  0  0  0  0  0  0  0  0  0
   23.6075   30.9678   -0.7090 C   0  0  0  0  0  0  0  0  0  0  0  0
   24.9677   31.3891   -0.5110 N   0  0  0  0  0  0  0  0  0  0  0  0
   25.9994   30.5137   -0.9469 C   0  0  0  0  0  0  0  0  0  0  0  0
   25.6827   29.4458   -1.5300 O   0  0  0  0  0  0  0  0  0  0  0  0
   27.4181   30.7875   -0.7541 C   0  0  0  0  0  0  0  0  0  0  0  0
   27.7609   31.9597   -0.1210 C   0  0  0  0  0  0  0  0  0  0  0  0
   29.1096   32.2470    0.0791 C   0  0  0  0  0  0  0  0  0  0  0  0
   30.1096   31.3839   -0.3424 C   0  0  0  0  0  0  0  0  0  0  0  0
   31.5048   31.7956   -0.0717 C   0  0  0  0  0  0  0  0  0  0  0  0
   31.8256   31.6227    1.2922 N   0  0  0  0  0  0  0  0  0  0  0  0
   33.2127   31.6833    1.6181 C   0  0  0  0  0  0  0  0  0  0  0  0
   33.5042   31.4435    3.0719 C   0  0  0  0  0  0  0  0  0  0  0  0
   32.3386   31.5408    3.9010 N   0  0  0  0  0  0  0  0  0  0  0  0
   31.8581   32.8888    4.0049 C   0  0  0  0  0  0  0  0  0  0  0  0
   31.3385   30.5908    3.4684 C   0  0  0  0  0  0  0  0  0  0  0  0
   31.0659   30.6531    1.9982 C   0  0  0  0  0  0  0  0  0  0  0  0
   29.7503   30.2239   -0.9697 C   0  0  0  0  0  0  0  0  0  0  0  0
   28.4147   29.9340   -1.1707 C   0  0  0  0  0  0  0  0  0  0  0  0
   23.1976   30.5245   -1.9670 C   0  0  0  0  0  0  0  0  0  0  0  0
   21.9165   30.1079   -2.2298 C   0  0  0  0  0  0  0  0  0  0  0  0
   21.4527   29.6527   -3.4815 N   0  0  0  0  0  0  0  0  0  0  0  0
   20.5530   30.3087   -4.3427 C   0  0  0  0  0  0  0  0  0  0  0  0
   19.8422   31.3978   -4.0657 N   0  0  0  0  0  0  0  0  0  0  0  0
   18.9860   32.0139   -4.8970 C   0  0  0  0  0  0  0  0  0  0  0  0
   18.8305   31.4668   -6.1514 C   0  0  0  0  0  0  0  0  0  0  0  0
   19.5400   30.3387   -6.4965 C   0  0  0  0  0  0  0  0  0  0  0  0
   20.3730   29.7934   -5.5972 N   0  0  0  0  0  0  0  0  0  0  0  0
   19.3987   29.7354   -7.8146 C   0  0  0  0  0  0  0  0  0  0  0  0
   18.6217   30.2440   -8.8175 C   0  0  0  0  0  0  0  0  0  0  0  0
   18.5363   29.6193  -10.0397 C   0  0  0  0  0  0  0  0  0  0  0  0
   19.2336   28.4615  -10.2853 C   0  0  0  0  0  0  0  0  0  0  0  0
   19.9977   27.9565   -9.3065 N   0  0  0  0  0  0  0  0  0  0  0  0
   20.0913   28.5589   -8.1016 C   0  0  0  0  0  0  0  0  0  0  0  0
  1  2  1  1
  2  3  2  0
  3  4  1  0
  4  5  2  0
  5  6  1  0
  6  7  1  0
  7  8  2  0
  7  9  1  0
  9 10  2  0
 10 11  1  0
 11 12  2  0
 12 13  1  0
 13 14  1  1
 15 14  1  1
 15 16  1  0
 16 17  1  1
 18 17  1  6
 19 17  1  6
 19 20  1  0
 12 21  1  0
 21 22  2  0
  5 23  1  0
 23 24  2  0
 24 25  1  0
 25 26  1  0
 26 27  2  0
 27 28  1  0
 28 29  2  0
 29 30  1  0
 30 31  2  0
 30 32  1  0
 32 33  2  0
 33 34  1  0
 34 35  2  0
 35 36  1  0
 36 37  2  0
 24  2  1  0
 22  9  1  0
 20 14  1  1
 31 26  1  0
 37 32  1  0
M  END
$$$$
