imatinib
     RDKit          3D

 37 41  0  0  0  0  0  0  0  0999 V2000
   16.0927   10.4575   18.7722 C   0  0  0  0  0  0  0  0  0  0  0  0
   15.2803   11.6763   18.9548 C   0  0  0  0  0  0  0  0  0  0  0  0
   14.0351   11.5604   19.5304 C   0  0  0  0  0  0  0  0  0  0  0  0
   13.2311   12.6441   19.7294 C   0  0  0  0  0  0  0  0  0  0  0  0
   13.7042   13.8762   19.3339 C   0  0  0  0  0  0  0  0  0  0  0  0
   12.8994   15.0529   19.5192 N   0  0  0  0  0  0  0  0  0  0  0  0
   12.4491   15.7340   18.3555 C   0  0  0  0  0  0  0  0  0  0  0  0
   13.0917   15.5941   17.2840 O   0  0  0  0  0  0  0  0  0  0  0  0
   11.2722   16.5938   18.3345 C   0  0  0  0  0  0  0  0  0  0  0  0
   10.9323   17.1801   17.1374 C   0  0  0  0  0  0  0  0  0  0  0  0
    9.8107   18.0054   17.0867 C   0  0  0  0  0  0  0  0  0  0  0  0
    9.0329   18.2488   18.2084 C   0  0  0  0  0  0  0  0  0  0  0  0
    7.8653   19.1402   18.0306 C   0  0  0  0  0  0  0  0  0  0  0  0
    8.0255   20.3335   18.7677 N   0  0  0  0  0  0  0  0  0  0  0  0
    6.9264   21.2415   18.7290 C   0  0  0  0  0  0  0  0  0  0  0  0
    7.1669   22.5159   19.4869 C   0  0  0  0  0  0  0  0  0  0  0  0
    8.2907   22.4375   20.3736 N   0  0  0  0  0  0  0  0  0  0  0  0
    8.0397   21.5746   21.4921 C   0  0  0  0  0  0  0  0  0  0  0  0
    9.4878   22.1086   19.6329 C   0  0  0  0  0  0  0  0  0  0  0  0
    9.3166   20.9232   18.7356 C   0  0  0  0  0  0  0  0  0  0  0  0
    9.3858   17.6578   19.3893 C   0  0  0  0  0  0  0  0  0  0  0  0
   10.4967   16.8387   19.4452 C   0  0  0  0  0  0  0  0  0  0  0  0
   14.9671   13.9875   18.7511 C   0  0  0  0  0  0  0  0  0  0  0  0
   15.7899   12.9089   18.5428 C   0  0  0  0  0  0  0  0  0  0  0  0
   17.0720   12.9682   17.9580 N   0  0  0  0  0  0  0  0  0  0  0  0
   17.4463   12.4988   16.6849 C   0  0  0  0  0  0  0  0  0  0  0  0
   16.6430   11.9660   15.7690 N   0  0  0  0  0  0  0  0  0  0  0  0
   17.0134   11.5211   14.5572 C   0  0  0  0  0  0  0  0  0  0  0  0
   18.3482   11.6268   14.2341 C   0  0  0  0  0  0  0  0  0  0  0  0
   19.2289   12.1702   15.1420 C   0  0  0  0  0  0  0  0  0  0  0  0
   18.7645   12.5878   16.3294 N   0  0  0  0  0  0  0  0  0  0  0  0
   20.6463   12.2963   14.8316 C   0  0  0  0  0  0  0  0  0  0  0  0
   21.2174   11.9009   13.6544 C   0  0  0  0  0  0  0  0  0  0  0  0
   22.5658   12.0515   13.4303 C   0  0  0  0  0  0  0  0  0  0  0  0
   23.3781   12.6064   14.3892 C   0  0  0  0  0  0  0  0  0  0  0  0
   22.8253   12.9966   15.5464 N   0  0  0  0  0  0  0  0  0  0  0  0
   21.5029   12.8550   15.7805 C   0  0  0  0  0  0  0  0  0  0  0  0
  1  2  1  1
  2  3  2  0
  3  4  1  0
  4  5  2  0
  5  6  1  0
  6  7  1  0
  7  8  2  0
  7  9  1  0
  9 10  2  0
 10 11  1  0
 11 12  2  0
 12 13  1  0
 13 14  1  1
 15 14  1  1
 15 16  1  0
 16 17  1  1
 18 17  1  6
 19 17  1  6
 19 20  1  0
 12 21  1  0
 21 22  2  0
  5 23  1  0
 23 24  2  0
 24 25  1  0
 25 26  1  0
 26 27  2  0
 27 28  1  0
 28 29  2  0
 29 30  1  0
 30 31  2  0
 30 32  1  0
 32 33  2  0
 33 34  1  0
 34 35  2  0
 35 36  1  0
 36 37  2  0
 24  2  1  0
 22  9  1  0
 20 14  1  1
 31 26  1  0
 37 32  1  0
M  END
$$$$
