imatinib
     RDKit          3D

 37 41  0  0  0  0  0  0  0  0999 V2000
   16.0560   10.6305   19.1990 C   0  0  0  0  0  0  0  0  0  0  0  0
   14.9738   11.6270   19.0775 C   0  0  0  0  0  0  0  0  0  0  0  0
   14.0189   11.6894   20.0672 C   0  0  0  0  0  0  0  0  0  0  0  0
   12.9913   12.5851   20.0196 C   0  0  0  0  0  0  0  0  0  0  0  0
   12.9326   13.4386   18.9396 C   0  0  0  0  0  0  0  0  0  0  0  0
   11.8713   14.4029   18.8373 N   0  0  0  0  0  0  0  0  0  0  0  0
   12.1349   15.6000   18.1176 C   0  0  0  0  0  0  0  0  0  0  0  0
   13.2704   15.7603   17.6022 O   0  0  0  0  0  0  0  0  0  0  0  0
   11.1528   16.6628   17.9416 C   0  0  0  0  0  0  0  0  0  0  0  0
    9.9887   16.5821   18.6701 C   0  0  0  0  0  0  0  0  0  0  0  0
    9.0325   17.5851   18.5239 C   0  0  0  0  0  0  0  0  0  0  0  0
    9.2252   18.6572   17.6660 C   0  0  0  0  0  0  0  0  0  0  0  0
    8.1401   19.6608   17.5974 C   0  0  0  0  0  0  0  0  0  0  0  0
    8.0954   20.4361   18.7764 N   0  0  0  0  0  0  0  0  0  0  0  0
    9.1863   20.2613   19.6783 C   0  0  0  0  0  0  0  0  0  0  0  0
    9.0657   21.0700   20.9383 C   0  0  0  0  0  0  0  0  0  0  0  0
    8.0765   22.1038   20.8487 N   0  0  0  0  0  0  0  0  0  0  0  0
    8.4740   23.1592   19.9615 C   0  0  0  0  0  0  0  0  0  0  0  0
    6.7845   21.5321   20.5423 C   0  0  0  0  0  0  0  0  0  0  0  0
    6.8178   20.5968   19.3745 C   0  0  0  0  0  0  0  0  0  0  0  0
   10.3879   18.7207   16.9501 C   0  0  0  0  0  0  0  0  0  0  0  0
   11.3393   17.7291   17.0912 C   0  0  0  0  0  0  0  0  0  0  0  0
   13.9033   13.3707   17.9396 C   0  0  0  0  0  0  0  0  0  0  0  0
   14.9441   12.4764   17.9702 C   0  0  0  0  0  0  0  0  0  0  0  0
   15.9483   12.3671   16.9859 N   0  0  0  0  0  0  0  0  0  0  0  0
   17.3231   12.6243   17.1442 C   0  0  0  0  0  0  0  0  0  0  0  0
   17.9133   13.1471   18.2149 N   0  0  0  0  0  0  0  0  0  0  0  0
   19.2273   13.3882   18.3529 C   0  0  0  0  0  0  0  0  0  0  0  0
   20.0372   13.0640   17.2871 C   0  0  0  0  0  0  0  0  0  0  0  0
   19.4835   12.5193   16.1504 C   0  0  0  0  0  0  0  0  0  0  0  0
   18.1584   12.3149   16.1057 N   0  0  0  0  0  0  0  0  0  0  0  0
   20.3119   12.1652   15.0059 C   0  0  0  0  0  0  0  0  0  0  0  0
   21.6270   12.5112   14.8678 C   0  0  0  0  0  0  0  0  0  0  0  0
   22.3486   12.1408   13.7573 C   0  0  0  0  0  0  0  0  0  0  0  0
   21.7630   11.4095   12.7525 C   0  0  0  0  0  0  0  0  0  0  0  0
   20.4735   11.0665   12.8809 N   0  0  0  0  0  0  0  0  0  0  0  0
   19.7524   11.4229   13.9656 C   0  0  0  0  0  0  0  0  0  0  0  0
  1  2  1  1
  2  3  2  0
  3  4  1  0
  4  5  2  0
  5  6  1  0
  6  7  1  0
  7  8  2  0
  7  9  1  0
  9 10  2  0
 10 11  1  0
 11 12  2  0
 12 13  1  0
 13 14  1  1
 15 14  1  1
 15 16  1  0
 16 17  1  1
 18 17  1  6
 19 17  1  6
 19 20  1  0
 12 21  1  0
 21 22  2  0
  5 23  1  0
 23 24  2  0
 24 25  1  0
 25 26  1  0
 26 27  2  0
 27 28  1  0
 28 29  2  0
 29 30  1  0
 30 31  2  0
 30 32  1  0
 32 33  2  0
 33 34  1  0
 34 35  2  0
 35 36  1  0
 36 37  2  0
 24  2  1  0
 22  9  1  0
 20 14  1  1
 31 26  1  0
 37 32  1  0
M  END
$$$$
