imatinib
     RDKit          3D

 37 41  0  0  0  0  0  0  0  0999 V2000
   15.7129   10.4911   18.6133 C   0  0  0  0  0  0  0  0  0  0  0  0
   14.8637   11.6842   18.7991 C   0  0  0  0  0  0  0  0  0  0  0  0
   13.9713   11.7033   19.8472 C   0  0  0  0  0  0  0  0  0  0  0  0
   13.1562   12.7723   20.0784 C   0  0  0  0  0  0  0  0  0  0  0  0
   13.2504   13.8485   19.2234 C   0  0  0  0  0  0  0  0  0  0  0  0
   12.4155   15.0023   19.4192 N   0  0  0  0  0  0  0  0  0  0  0  0
   12.6234   16.1196   18.5652 C   0  0  0  0  0  0  0  0  0  0  0  0
   13.7001   16.1985   17.9210 O   0  0  0  0  0  0  0  0  0  0  0  0
   11.6485   17.1895   18.3926 C   0  0  0  0  0  0  0  0  0  0  0  0
   11.9902   18.2365   17.5684 C   0  0  0  0  0  0  0  0  0  0  0  0
   11.0772   19.2725   17.3827 C   0  0  0  0  0  0  0  0  0  0  0  0
    9.8384   19.2735   18.0057 C   0  0  0  0  0  0  0  0  0  0  0  0
    8.9532   20.4266   17.7297 C   0  0  0  0  0  0  0  0  0  0  0  0
    8.3581   20.9011   18.9187 N   0  0  0  0  0  0  0  0  0  0  0  0
    9.0366   20.5716   20.1291 C   0  0  0  0  0  0  0  0  0  0  0  0
    8.3367   21.0559   21.3667 C   0  0  0  0  0  0  0  0  0  0  0  0
    7.3251   22.0341   21.0924 N   0  0  0  0  0  0  0  0  0  0  0  0
    7.8825   23.2855   20.6655 C   0  0  0  0  0  0  0  0  0  0  0  0
    6.3378   21.4898   20.1875 C   0  0  0  0  0  0  0  0  0  0  0  0
    6.9400   20.8568   18.9725 C   0  0  0  0  0  0  0  0  0  0  0  0
    9.5161   18.2250   18.8212 C   0  0  0  0  0  0  0  0  0  0  0  0
   10.4175   17.1952   19.0088 C   0  0  0  0  0  0  0  0  0  0  0  0
   14.1568   13.8235   18.1628 C   0  0  0  0  0  0  0  0  0  0  0  0
   14.9846   12.7572   17.9145 C   0  0  0  0  0  0  0  0  0  0  0  0
   15.9154   12.6824   16.8575 N   0  0  0  0  0  0  0  0  0  0  0  0
   17.3162   12.7834   16.9517 C   0  0  0  0  0  0  0  0  0  0  0  0
   18.0075   13.2910   17.9678 N   0  0  0  0  0  0  0  0  0  0  0  0
   19.3452   13.3821   18.0449 C   0  0  0  0  0  0  0  0  0  0  0  0
   20.0666   12.9059   16.9726 C   0  0  0  0  0  0  0  0  0  0  0  0
   19.4062   12.3685   15.8907 C   0  0  0  0  0  0  0  0  0  0  0  0
   18.0656   12.3203   15.9049 N   0  0  0  0  0  0  0  0  0  0  0  0
   20.1391   11.8561   14.7411 C   0  0  0  0  0  0  0  0  0  0  0  0
   19.5762   11.1361   13.7247 C   0  0  0  0  0  0  0  0  0  0  0  0
   20.3316   10.6838   12.6683 C   0  0  0  0  0  0  0  0  0  0  0  0
   21.6788   10.9453   12.6070 C   0  0  0  0  0  0  0  0  0  0  0  0
   22.2380   11.6509   13.6002 N   0  0  0  0  0  0  0  0  0  0  0  0
   21.5090   12.1015   14.6438 C   0  0  0  0  0  0  0  0  0  0  0  0
  1  2  1  1
  2  3  2  0
  3  4  1  0
  4  5  2  0
  5  6  1  0
  6  7  1  0
  7  8  2  0
  7  9  1  0
  9 10  2  0
 10 11  1  0
 11 12  2  0
 12 13  1  0
 13 14  1  1
 15 14  1  1
 15 16  1  0
 16 17  1  1
 18 17  1  6
 19 17  1  6
 19 20  1  0
 12 21  1  0
 21 22  2  0
  5 23  1  0
 23 24  2  0
 24 25  1  0
 25 26  1  0
 26 27  2  0
 27 28  1  0
 28 29  2  0
 29 30  1  0
 30 31  2  0
 30 32  1  0
 32 33  2  0
 33 34  1  0
 34 35  2  0
 35 36  1  0
 36 37  2  0
 24  2  1  0
 22  9  1  0
 20 14  1  1
 31 26  1  0
 37 32  1  0
M  END
$$$$
