imatinib
     RDKit          3D

 37 41  0  0  0  0  0  0  0  0999 V2000
   16.0243   10.6146   19.0957 C   0  0  0  0  0  0  0  0  0  0  0  0
   14.9786   11.6548   19.1532 C   0  0  0  0  0  0  0  0  0  0  0  0
   14.0413   11.5946   20.1598 C   0  0  0  0  0  0  0  0  0  0  0  0
   13.0474   12.5218   20.2735 C   0  0  0  0  0  0  0  0  0  0  0  0
   13.0050   13.5355   19.3413 C   0  0  0  0  0  0  0  0  0  0  0  0
   11.9792   14.5402   19.4124 N   0  0  0  0  0  0  0  0  0  0  0  0
   11.9156   15.4935   18.3598 C   0  0  0  0  0  0  0  0  0  0  0  0
   12.7877   15.4571   17.4550 O   0  0  0  0  0  0  0  0  0  0  0  0
   10.8856   16.5211   18.2696 C   0  0  0  0  0  0  0  0  0  0  0  0
   10.8331   17.2718   17.1180 C   0  0  0  0  0  0  0  0  0  0  0  0
    9.8575   18.2599   17.0027 C   0  0  0  0  0  0  0  0  0  0  0  0
    8.9427   18.5035   18.0158 C   0  0  0  0  0  0  0  0  0  0  0  0
    7.9524   19.5766   17.7772 C   0  0  0  0  0  0  0  0  0  0  0  0
    7.9600   20.5134   18.8334 N   0  0  0  0  0  0  0  0  0  0  0  0
    9.2115   20.6999   19.4913 C   0  0  0  0  0  0  0  0  0  0  0  0
    9.1543   21.6680   20.6383 C   0  0  0  0  0  0  0  0  0  0  0  0
    7.9636   22.4666   20.6393 N   0  0  0  0  0  0  0  0  0  0  0  0
    7.9471   23.4167   19.5641 C   0  0  0  0  0  0  0  0  0  0  0  0
    6.7945   21.6180   20.6934 C   0  0  0  0  0  0  0  0  0  0  0  0
    6.8131   20.5260   19.6702 C   0  0  0  0  0  0  0  0  0  0  0  0
    9.0100   17.7479   19.1528 C   0  0  0  0  0  0  0  0  0  0  0  0
    9.9752   16.7669   19.2725 C   0  0  0  0  0  0  0  0  0  0  0  0
   13.9577   13.5914   18.3234 C   0  0  0  0  0  0  0  0  0  0  0  0
   14.9645   12.6678   18.1928 C   0  0  0  0  0  0  0  0  0  0  0  0
   15.9494   12.6793   17.1833 N   0  0  0  0  0  0  0  0  0  0  0  0
   17.3385   12.8285   17.3548 C   0  0  0  0  0  0  0  0  0  0  0  0
   17.9655   13.1809   18.4732 N   0  0  0  0  0  0  0  0  0  0  0  0
   19.2928   13.3204   18.6233 C   0  0  0  0  0  0  0  0  0  0  0  0
   20.0757   13.0760   17.5168 C   0  0  0  0  0  0  0  0  0  0  0  0
   19.4835   12.7075   16.3299 C   0  0  0  0  0  0  0  0  0  0  0  0
   18.1477   12.5938   16.2769 N   0  0  0  0  0  0  0  0  0  0  0  0
   20.2825   12.4418   15.1415 C   0  0  0  0  0  0  0  0  0  0  0  0
   19.8008   11.8643   14.0002 C   0  0  0  0  0  0  0  0  0  0  0  0
   20.6154   11.6437   12.9143 C   0  0  0  0  0  0  0  0  0  0  0  0
   21.9417   12.0001   12.9491 C   0  0  0  0  0  0  0  0  0  0  0  0
   22.4214   12.5671   14.0650 N   0  0  0  0  0  0  0  0  0  0  0  0
   21.6335   12.7898   15.1389 C   0  0  0  0  0  0  0  0  0  0  0  0
  1  2  1  1
  2  3  2  0
  3  4  1  0
  4  5  2  0
  5  6  1  0
  6  7  1  0
  7  8  2  0
  7  9  1  0
  9 10  2  0
 10 11  1  0
 11 12  2  0
 12 13  1  0
 13 14  1  1
 15 14  1  1
 15 16  1  0
 16 17  1  1
 18 17  1  6
 19 17  1  6
 19 20  1  0
 12 21  1  0
 21 22  2  0
  5 23  1  0
 23 24  2  0
 24 25  1  0
 25 26  1  0
 26 27  2  0
 27 28  1  0
 28 29  2  0
 29 30  1  0
 30 31  2  0
 30 32  1  0
 32 33  2  0
 33 34  1  0
 34 35  2  0
 35 36  1  0
 36 37  2  0
 24  2  1  0
 22  9  1  0
 20 14  1  1
 31 26  1  0
 37 32  1  0
M  END
$$$$
