imatinib
     RDKit          3D

 37 41  0  0  0  0  0  0  0  0999 V2000
   16.1519   10.5742   19.3188 C   0  0  0  0  0  0  0  0  0  0  0  0
   15.0323   11.5332   19.2433 C   0  0  0  0  0  0  0  0  0  0  0  0
   14.0752   11.5108   20.2327 C   0  0  0  0  0  0  0  0  0  0  0  0
   13.0140   12.3677   20.2264 C   0  0  0  0  0  0  0  0  0  0  0  0
   12.9232   13.2699   19.1890 C   0  0  0  0  0  0  0  0  0  0  0  0
   11.8257   14.1967   19.1312 N   0  0  0  0  0  0  0  0  0  0  0  0
   11.9109   15.2624   18.1944 C   0  0  0  0  0  0  0  0  0  0  0  0
   12.8819   15.2921   17.3963 O   0  0  0  0  0  0  0  0  0  0  0  0
   10.9259   16.3333   18.1061 C   0  0  0  0  0  0  0  0  0  0  0  0
   10.8448   17.0289   16.9220 C   0  0  0  0  0  0  0  0  0  0  0  0
    9.9109   18.0566   16.8079 C   0  0  0  0  0  0  0  0  0  0  0  0
    9.0654   18.3935   17.8540 C   0  0  0  0  0  0  0  0  0  0  0  0
    8.1138   19.5007   17.6133 C   0  0  0  0  0  0  0  0  0  0  0  0
    8.4469   20.6298   18.3925 N   0  0  0  0  0  0  0  0  0  0  0  0
    7.4826   21.6803   18.4108 C   0  0  0  0  0  0  0  0  0  0  0  0
    7.9066   22.8778   19.2122 C   0  0  0  0  0  0  0  0  0  0  0  0
    9.0217   22.6104   20.0727 N   0  0  0  0  0  0  0  0  0  0  0  0
    8.6707   21.7448   21.1620 C   0  0  0  0  0  0  0  0  0  0  0  0
   10.1515   22.1516   19.2963 C   0  0  0  0  0  0  0  0  0  0  0  0
    9.8063   21.0383   18.3576 C   0  0  0  0  0  0  0  0  0  0  0  0
    9.1603   17.6915   19.0230 C   0  0  0  0  0  0  0  0  0  0  0  0
   10.0844   16.6717   19.1417 C   0  0  0  0  0  0  0  0  0  0  0  0
   13.8962   13.2879   18.1891 C   0  0  0  0  0  0  0  0  0  0  0  0
   14.9705   12.4338   18.1786 C   0  0  0  0  0  0  0  0  0  0  0  0
   15.9786   12.4111   17.1925 N   0  0  0  0  0  0  0  0  0  0  0  0
   17.3453   12.6976   17.3695 C   0  0  0  0  0  0  0  0  0  0  0  0
   17.9113   13.2209   18.4530 N   0  0  0  0  0  0  0  0  0  0  0  0
   19.2178   13.4902   18.6089 C   0  0  0  0  0  0  0  0  0  0  0  0
   20.0469   13.1973   17.5487 C   0  0  0  0  0  0  0  0  0  0  0  0
   19.5186   12.6537   16.3995 C   0  0  0  0  0  0  0  0  0  0  0  0
   18.1990   12.4197   16.3372 N   0  0  0  0  0  0  0  0  0  0  0  0
   20.3676   12.3322   15.2605 C   0  0  0  0  0  0  0  0  0  0  0  0
   21.6716   12.7221   15.1349 C   0  0  0  0  0  0  0  0  0  0  0  0
   22.4143   12.3808   14.0289 C   0  0  0  0  0  0  0  0  0  0  0  0
   21.8615   11.6350   13.0163 C   0  0  0  0  0  0  0  0  0  0  0  0
   20.5831   11.2489   13.1324 N   0  0  0  0  0  0  0  0  0  0  0  0
   19.8416   11.5766   14.2124 C   0  0  0  0  0  0  0  0  0  0  0  0
  1  2  1  1
  2  3  2  0
  3  4  1  0
  4  5  2  0
  5  6  1  0
  6  7  1  0
  7  8  2  0
  7  9  1  0
  9 10  2  0
 10 11  1  0
 11 12  2  0
 12 13  1  0
 13 14  1  1
 15 14  1  1
 15 16  1  0
 16 17  1  1
 18 17  1  6
 19 17  1  6
 19 20  1  0
 12 21  1  0
 21 22  2  0
  5 23  1  0
 23 24  2  0
 24 25  1  0
 25 26  1  0
 26 27  2  0
 27 28  1  0
 28 29  2  0
 29 30  1  0
 30 31  2  0
 30 32  1  0
 32 33  2  0
 33 34  1  0
 34 35  2  0
 35 36  1  0
 36 37  2  0
 24  2  1  0
 22  9  1  0
 20 14  1  1
 31 26  1  0
 37 32  1  0
M  END
$$$$
