imatinib
     RDKit          3D

 37 41  0  0  0  0  0  0  0  0999 V2000
   15.6677   10.4672   18.9480 C   0  0  0  0  0  0  0  0  0  0  0  0
   14.8609   11.6945   19.0958 C   0  0  0  0  0  0  0  0  0  0  0  0
   13.9307   11.7557   20.1088 C   0  0  0  0  0  0  0  0  0  0  0  0
   13.1511   12.8579   20.3038 C   0  0  0  0  0  0  0  0  0  0  0  0
   13.3211   13.9243   19.4482 C   0  0  0  0  0  0  0  0  0  0  0  0
   12.5265   15.1119   19.6066 N   0  0  0  0  0  0  0  0  0  0  0  0
   12.3558   15.9479   18.4697 C   0  0  0  0  0  0  0  0  0  0  0  0
   13.2387   15.9422   17.5747 O   0  0  0  0  0  0  0  0  0  0  0  0
   11.2031   16.8200   18.2813 C   0  0  0  0  0  0  0  0  0  0  0  0
   10.2337   16.8152   19.2574 C   0  0  0  0  0  0  0  0  0  0  0  0
    9.1213   17.6404   19.1052 C   0  0  0  0  0  0  0  0  0  0  0  0
    8.9687   18.4623   17.9990 C   0  0  0  0  0  0  0  0  0  0  0  0
    7.7469   19.2954   17.9497 C   0  0  0  0  0  0  0  0  0  0  0  0
    7.8508   20.3949   18.8291 N   0  0  0  0  0  0  0  0  0  0  0  0
    6.8236   21.3782   18.7207 C   0  0  0  0  0  0  0  0  0  0  0  0
    7.0077   22.5504   19.6417 C   0  0  0  0  0  0  0  0  0  0  0  0
    7.9677   22.3042   20.6776 N   0  0  0  0  0  0  0  0  0  0  0  0
    7.4928   21.3541   21.6424 C   0  0  0  0  0  0  0  0  0  0  0  0
    9.2490   21.9662   20.0996 C   0  0  0  0  0  0  0  0  0  0  0  0
    9.1605   20.8913   19.0621 C   0  0  0  0  0  0  0  0  0  0  0  0
    9.9419   18.4539   17.0392 C   0  0  0  0  0  0  0  0  0  0  0  0
   11.0468   17.6377   17.1850 C   0  0  0  0  0  0  0  0  0  0  0  0
   14.2655   13.8565   18.4233 C   0  0  0  0  0  0  0  0  0  0  0  0
   15.0586   12.7565   18.2116 C   0  0  0  0  0  0  0  0  0  0  0  0
   16.0252   12.6380   17.1914 N   0  0  0  0  0  0  0  0  0  0  0  0
   17.4235   12.7132   17.3346 C   0  0  0  0  0  0  0  0  0  0  0  0
   18.0887   13.1416   18.4032 N   0  0  0  0  0  0  0  0  0  0  0  0
   19.4243   13.2089   18.5267 C   0  0  0  0  0  0  0  0  0  0  0  0
   20.1731   12.7962   17.4469 C   0  0  0  0  0  0  0  0  0  0  0  0
   19.5405   12.3421   16.3116 C   0  0  0  0  0  0  0  0  0  0  0  0
   18.1995   12.3114   16.2819 N   0  0  0  0  0  0  0  0  0  0  0  0
   20.3027   11.8983   15.1525 C   0  0  0  0  0  0  0  0  0  0  0  0
   19.7601   11.2749   14.0639 C   0  0  0  0  0  0  0  0  0  0  0  0
   20.5428   10.8832   13.0031 C   0  0  0  0  0  0  0  0  0  0  0  0
   21.8978   11.1097   13.0105 C   0  0  0  0  0  0  0  0  0  0  0  0
   22.4372   11.7206   14.0748 N   0  0  0  0  0  0  0  0  0  0  0  0
   21.6812   12.1108   15.1235 C   0  0  0  0  0  0  0  0  0  0  0  0
  1  2  1  1
  2  3  2  0
  3  4  1  0
  4  5  2  0
  5  6  1  0
  6  7  1  0
  7  8  2  0
  7  9  1  0
  9 10  2  0
 10 11  1  0
 11 12  2  0
 12 13  1  0
 13 14  1  1
 15 14  1  1
 15 16  1  0
 16 17  1  1
 18 17  1  6
 19 17  1  6
 19 20  1  0
 12 21  1  0
 21 22  2  0
  5 23  1  0
 23 24  2  0
 24 25  1  0
 25 26  1  0
 26 27  2  0
 27 28  1  0
 28 29  2  0
 29 30  1  0
 30 31  2  0
 30 32  1  0
 32 33  2  0
 33 34  1  0
 34 35  2  0
 35 36  1  0
 36 37  2  0
 24  2  1  0
 22  9  1  0
 20 14  1  1
 31 26  1  0
 37 32  1  0
M  END
$$$$
