imatinib
     RDKit          3D

 37 41  0  0  0  0  0  0  0  0999 V2000
   15.6812   10.3265   18.8373 C   0  0  0  0  0  0  0  0  0  0  0  0
   14.8178   11.5182   18.9536 C   0  0  0  0  0  0  0  0  0  0  0  0
   13.8523   11.5415   19.9347 C   0  0  0  0  0  0  0  0  0  0  0  0
   13.0200   12.6095   20.0994 C   0  0  0  0  0  0  0  0  0  0  0  0
   13.1727   13.6804   19.2462 C   0  0  0  0  0  0  0  0  0  0  0  0
   12.3229   14.8330   19.3737 N   0  0  0  0  0  0  0  0  0  0  0  0
   12.2398   15.7172   18.2638 C   0  0  0  0  0  0  0  0  0  0  0  0
   13.1398   15.6762   17.3869 O   0  0  0  0  0  0  0  0  0  0  0  0
   11.1587   16.6783   18.0833 C   0  0  0  0  0  0  0  0  0  0  0  0
   10.2443   16.8082   19.1028 C   0  0  0  0  0  0  0  0  0  0  0  0
    9.2013   17.7209   18.9590 C   0  0  0  0  0  0  0  0  0  0  0  0
    9.0636   18.4975   17.8186 C   0  0  0  0  0  0  0  0  0  0  0  0
    7.9176   19.4328   17.7823 C   0  0  0  0  0  0  0  0  0  0  0  0
    8.1628   20.5620   18.5935 N   0  0  0  0  0  0  0  0  0  0  0  0
    7.2095   21.6181   18.4951 C   0  0  0  0  0  0  0  0  0  0  0  0
    7.5426   22.8151   19.3391 C   0  0  0  0  0  0  0  0  0  0  0  0
    8.5460   22.5434   20.3264 N   0  0  0  0  0  0  0  0  0  0  0  0
    8.0629   21.6826   21.3679 C   0  0  0  0  0  0  0  0  0  0  0  0
    9.7572   22.0760   19.6906 C   0  0  0  0  0  0  0  0  0  0  0  0
    9.5191   20.9624   18.7195 C   0  0  0  0  0  0  0  0  0  0  0  0
    9.9815   18.3549   16.8159 C   0  0  0  0  0  0  0  0  0  0  0  0
   11.0175   17.4516   16.9532 C   0  0  0  0  0  0  0  0  0  0  0  0
   14.1531   13.6512   18.2537 C   0  0  0  0  0  0  0  0  0  0  0  0
   14.9993   12.5858   18.0727 C   0  0  0  0  0  0  0  0  0  0  0  0
   16.0039   12.5069   17.0859 N   0  0  0  0  0  0  0  0  0  0  0  0
   17.3965   12.5323   17.2890 C   0  0  0  0  0  0  0  0  0  0  0  0
   18.0264   12.8023   18.4285 N   0  0  0  0  0  0  0  0  0  0  0  0
   19.3571   12.8239   18.6087 C   0  0  0  0  0  0  0  0  0  0  0  0
   20.1406   12.5403   17.5120 C   0  0  0  0  0  0  0  0  0  0  0  0
   19.5456   12.2530   16.3043 C   0  0  0  0  0  0  0  0  0  0  0  0
   18.2065   12.2556   16.2217 N   0  0  0  0  0  0  0  0  0  0  0  0
   20.3452   11.9489   15.1255 C   0  0  0  0  0  0  0  0  0  0  0  0
   21.7016   12.1004   15.0523 C   0  0  0  0  0  0  0  0  0  0  0  0
   22.3923   11.7921   13.9037 C   0  0  0  0  0  0  0  0  0  0  0  0
   21.7330   11.3212   12.7943 C   0  0  0  0  0  0  0  0  0  0  0  0
   20.4027   11.1700   12.8586 N   0  0  0  0  0  0  0  0  0  0  0  0
   19.7112   11.4686   13.9794 C   0  0  0  0  0  0  0  0  0  0  0  0
  1  2  1  1
  2  3  2  0
  3  4  1  0
  4  5  2  0
  5  6  1  0
  6  7  1  0
  7  8  2  0
  7  9  1  0
  9 10  2  0
 10 11  1  0
 11 12  2  0
 12 13  1  0
 13 14  1  1
 15 14  1  1
 15 16  1  0
 16 17  1  1
 18 17  1  6
 19 17  1  6
 19 20  1  0
 12 21  1  0
 21 22  2  0
  5 23  1  0
 23 24  2  0
 24 25  1  0
 25 26  1  0
 26 27  2  0
 27 28  1  0
 28 29  2  0
 29 30  1  0
 30 31  2  0
 30 32  1  0
 32 33  2  0
 33 34  1  0
 34 35  2  0
 35 36  1  0
 36 37  2  0
 24  2  1  0
 22  9  1  0
 20 14  1  1
 31 26  1  0
 37 32  1  0
M  END
$$$$
