imatinib
     RDKit          3D

 37 41  0  0  0  0  0  0  0  0999 V2000
   15.8038   10.3586   18.5789 C   0  0  0  0  0  0  0  0  0  0  0  0
   14.8481   11.4778   18.6922 C   0  0  0  0  0  0  0  0  0  0  0  0
   13.9232   11.4564   19.7118 C   0  0  0  0  0  0  0  0  0  0  0  0
   13.0108   12.4568   19.8763 C   0  0  0  0  0  0  0  0  0  0  0  0
   13.0388   13.5050   18.9827 C   0  0  0  0  0  0  0  0  0  0  0  0
   12.1002   14.5868   19.1079 N   0  0  0  0  0  0  0  0  0  0  0  0
   12.1862   15.6471   18.1651 C   0  0  0  0  0  0  0  0  0  0  0  0
   13.1293   15.6445   17.3337 O   0  0  0  0  0  0  0  0  0  0  0  0
   11.2326   16.7481   18.1072 C   0  0  0  0  0  0  0  0  0  0  0  0
   11.2896   17.5842   17.0163 C   0  0  0  0  0  0  0  0  0  0  0  0
   10.3889   18.6441   16.9329 C   0  0  0  0  0  0  0  0  0  0  0  0
    9.4411   18.8752   17.9183 C   0  0  0  0  0  0  0  0  0  0  0  0
    8.5377   20.0297   17.7180 C   0  0  0  0  0  0  0  0  0  0  0  0
    8.5228   20.8617   18.8585 N   0  0  0  0  0  0  0  0  0  0  0  0
    9.7085   20.8535   19.6508 C   0  0  0  0  0  0  0  0  0  0  0  0
    9.6227   21.7153   20.8780 C   0  0  0  0  0  0  0  0  0  0  0  0
    8.5220   22.6332   20.8429 N   0  0  0  0  0  0  0  0  0  0  0  0
    8.7133   23.6723   19.8720 C   0  0  0  0  0  0  0  0  0  0  0  0
    7.2770   21.9130   20.6972 C   0  0  0  0  0  0  0  0  0  0  0  0
    7.2993   20.9216   19.5763 C   0  0  0  0  0  0  0  0  0  0  0  0
    9.3994   18.0342   18.9950 C   0  0  0  0  0  0  0  0  0  0  0  0
   10.2899   16.9819   19.0827 C   0  0  0  0  0  0  0  0  0  0  0  0
   13.9784   13.5214   17.9513 C   0  0  0  0  0  0  0  0  0  0  0  0
   14.9039   12.5242   17.7699 C   0  0  0  0  0  0  0  0  0  0  0  0
   15.8720   12.4933   16.7447 N   0  0  0  0  0  0  0  0  0  0  0  0
   17.2581   12.6974   16.8803 C   0  0  0  0  0  0  0  0  0  0  0  0
   17.8914   13.1440   17.9609 N   0  0  0  0  0  0  0  0  0  0  0  0
   19.2157   13.3350   18.0769 C   0  0  0  0  0  0  0  0  0  0  0  0
   19.9881   13.0413   16.9750 C   0  0  0  0  0  0  0  0  0  0  0  0
   19.3890   12.5751   15.8265 C   0  0  0  0  0  0  0  0  0  0  0  0
   18.0570   12.4161   15.8058 N   0  0  0  0  0  0  0  0  0  0  0  0
   20.1770   12.2551   14.6441 C   0  0  0  0  0  0  0  0  0  0  0  0
   21.4825   12.6177   14.4646 C   0  0  0  0  0  0  0  0  0  0  0  0
   22.1653   12.2796   13.3197 C   0  0  0  0  0  0  0  0  0  0  0  0
   21.5492   11.5647   12.3214 C   0  0  0  0  0  0  0  0  0  0  0  0
   20.2688   11.2054   12.4903 N   0  0  0  0  0  0  0  0  0  0  0  0
   19.5858   11.5303   13.6090 C   0  0  0  0  0  0  0  0  0  0  0  0
  1  2  1  1
  2  3  2  0
  3  4  1  0
  4  5  2  0
  5  6  1  0
  6  7  1  0
  7  8  2  0
  7  9  1  0
  9 10  2  0
 10 11  1  0
 11 12  2  0
 12 13  1  0
 13 14  1  1
 15 14  1  1
 15 16  1  0
 16 17  1  1
 18 17  1  6
 19 17  1  6
 19 20  1  0
 12 21  1  0
 21 22  2  0
  5 23  1  0
 23 24  2  0
 24 25  1  0
 25 26  1  0
 26 27  2  0
 27 28  1  0
 28 29  2  0
 29 30  1  0
 30 31  2  0
 30 32  1  0
 32 33  2  0
 33 34  1  0
 34 35  2  0
 35 36  1  0
 36 37  2  0
 24  2  1  0
 22  9  1  0
 20 14  1  1
 31 26  1  0
 37 32  1  0
M  END
$$$$
