quercetin
     RDKit          3D

 22 24  0  0  0  0  0  0  0  0999 V2000
   21.9314   62.8025   21.2709 O   0  0  0  0  0  0  0  0  0  0  0  0
   21.0558   62.1748   21.9318 C   0  0  0  0  0  0  0  0  0  0  0  0
   19.7431   62.6541   22.0043 C   0  0  0  0  0  0  0  0  0  0  0  0
   19.4924   63.8237   21.3211 O   0  0  0  0  0  0  0  0  0  0  0  0
   18.7566   62.0138   22.7057 C   0  0  0  0  0  0  0  0  0  0  0  0
   17.3854   62.4363   22.8320 C   0  0  0  0  0  0  0  0  0  0  0  0
   16.3829   61.7761   23.4884 C   0  0  0  0  0  0  0  0  0  0  0  0
   15.0755   62.2562   23.5639 C   0  0  0  0  0  0  0  0  0  0  0  0
   14.7307   63.4428   22.9668 C   0  0  0  0  0  0  0  0  0  0  0  0
   13.4341   63.9306   23.0348 O   0  0  0  0  0  0  0  0  0  0  0  0
   15.7245   64.1259   22.2993 C   0  0  0  0  0  0  0  0  0  0  0  0
   15.4233   65.3297   21.6803 O   0  0  0  0  0  0  0  0  0  0  0  0
   17.0132   63.6441   22.2299 C   0  0  0  0  0  0  0  0  0  0  0  0
   19.1347   60.8912   23.3213 O   0  0  0  0  0  0  0  0  0  0  0  0
   20.3279   60.4047   23.2882 C   0  0  0  0  0  0  0  0  0  0  0  0
   20.5925   59.2452   23.9608 C   0  0  0  0  0  0  0  0  0  0  0  0
   21.8740   58.6880   23.9477 C   0  0  0  0  0  0  0  0  0  0  0  0
   22.0947   57.4989   24.6522 O   0  0  0  0  0  0  0  0  0  0  0  0
   22.8746   59.3180   23.2489 C   0  0  0  0  0  0  0  0  0  0  0  0
   22.6430   60.4870   22.5606 C   0  0  0  0  0  0  0  0  0  0  0  0
   23.6278   61.1574   21.8403 O   0  0  0  0  0  0  0  0  0  0  0  0
   21.3574   61.0025   22.6018 C   0  0  0  0  0  0  0  0  0  0  0  0
  1  2  2  0
  2  3  1  0
  3  4  1  0
  3  5  2  0
  5  6  1  0
  6  7  2  0
  7  8  1  0
  8  9  2  0
  9 10  1  0
  9 11  1  0
 11 12  1  0
 11 13  2  0
  5 14  1  0
 14 15  1  0
 15 16  2  0
 16 17  1  0
 17 18  1  0
 17 19  2  0
 19 20  1  0
 20 21  1  0
 20 22  2  0
 22  2  1  0
 13  6  1  0
 22 15  1  0
M  END
$$$$
