quercetin
     RDKit          3D

 22 24  0  0  0  0  0  0  0  0999 V2000
   24.4787   61.4586   21.6429 O   0  0  0  0  0  0  0  0  0  0  0  0
   23.2988   61.9086   21.5897 C   0  0  0  0  0  0  0  0  0  0  0  0
   23.0343   63.1333   20.9666 C   0  0  0  0  0  0  0  0  0  0  0  0
   24.1256   63.7847   20.4352 O   0  0  0  0  0  0  0  0  0  0  0  0
   21.7758   63.6662   20.8811 C   0  0  0  0  0  0  0  0  0  0  0  0
   21.4167   64.9153   20.2601 C   0  0  0  0  0  0  0  0  0  0  0  0
   22.2623   65.7929   19.6384 C   0  0  0  0  0  0  0  0  0  0  0  0
   21.8316   66.9866   19.0597 C   0  0  0  0  0  0  0  0  0  0  0  0
   20.5059   67.3404   19.0905 C   0  0  0  0  0  0  0  0  0  0  0  0
   20.0655   68.5248   18.5186 O   0  0  0  0  0  0  0  0  0  0  0  0
   19.6349   66.4715   19.7117 C   0  0  0  0  0  0  0  0  0  0  0  0
   18.2856   66.7866   19.7676 O   0  0  0  0  0  0  0  0  0  0  0  0
   20.0692   65.2945   20.2807 C   0  0  0  0  0  0  0  0  0  0  0  0
   20.8094   62.9322   21.4371 O   0  0  0  0  0  0  0  0  0  0  0  0
   20.9960   61.7994   22.0229 C   0  0  0  0  0  0  0  0  0  0  0  0
   19.9236   61.1409   22.5551 C   0  0  0  0  0  0  0  0  0  0  0  0
   20.0873   59.9107   23.1976 C   0  0  0  0  0  0  0  0  0  0  0  0
   18.9577   59.2755   23.7264 O   0  0  0  0  0  0  0  0  0  0  0  0
   21.3431   59.3626   23.2918 C   0  0  0  0  0  0  0  0  0  0  0  0
   22.4450   59.9986   22.7670 C   0  0  0  0  0  0  0  0  0  0  0  0
   23.7342   59.4786   22.8405 O   0  0  0  0  0  0  0  0  0  0  0  0
   22.2347   61.2159   22.1392 C   0  0  0  0  0  0  0  0  0  0  0  0
  1  2  2  0
  2  3  1  0
  3  4  1  0
  3  5  2  0
  5  6  1  0
  6  7  2  0
  7  8  1  0
  8  9  2  0
  9 10  1  0
  9 11  1  0
 11 12  1  0
 11 13  2  0
  5 14  1  0
 14 15  1  0
 15 16  2  0
 16 17  1  0
 17 18  1  0
 17 19  2  0
 19 20  1  0
 20 21  1  0
 20 22  2  0
 22  2  1  0
 13  6  1  0
 22 15  1  0
M  END
$$$$
