quercetin
     RDKit          3D

 22 24  0  0  0  0  0  0  0  0999 V2000
   24.3597   63.6687   18.6517 O   0  0  0  0  0  0  0  0  0  0  0  0
   24.1663   62.8224   19.5703 C   0  0  0  0  0  0  0  0  0  0  0  0
   22.9111   62.7103   20.1786 C   0  0  0  0  0  0  0  0  0  0  0  0
   21.9387   63.5669   19.7113 O   0  0  0  0  0  0  0  0  0  0  0  0
   22.6477   61.8113   21.1773 C   0  0  0  0  0  0  0  0  0  0  0  0
   21.3896   61.6306   21.8551 C   0  0  0  0  0  0  0  0  0  0  0  0
   20.3449   62.5131   21.8900 C   0  0  0  0  0  0  0  0  0  0  0  0
   19.1553   62.2600   22.5729 C   0  0  0  0  0  0  0  0  0  0  0  0
   18.9784   61.0834   23.2568 C   0  0  0  0  0  0  0  0  0  0  0  0
   17.8001   60.8202   23.9396 O   0  0  0  0  0  0  0  0  0  0  0  0
   20.0178   60.1785   23.2359 C   0  0  0  0  0  0  0  0  0  0  0  0
   19.8848   58.9755   23.9128 O   0  0  0  0  0  0  0  0  0  0  0  0
   21.1892   60.4370   22.5586 C   0  0  0  0  0  0  0  0  0  0  0  0
   23.6782   61.0418   21.5350 O   0  0  0  0  0  0  0  0  0  0  0  0
   24.8537   61.1023   21.0096 C   0  0  0  0  0  0  0  0  0  0  0  0
   25.8290   60.2593   21.4623 C   0  0  0  0  0  0  0  0  0  0  0  0
   27.1151   60.2960   20.9167 C   0  0  0  0  0  0  0  0  0  0  0  0
   28.0794   59.4121   21.4145 O   0  0  0  0  0  0  0  0  0  0  0  0
   27.3955   61.1920   19.9143 C   0  0  0  0  0  0  0  0  0  0  0  0
   26.4371   62.0554   19.4346 C   0  0  0  0  0  0  0  0  0  0  0  0
   26.6789   62.9782   18.4208 O   0  0  0  0  0  0  0  0  0  0  0  0
   25.1765   61.9832   20.0054 C   0  0  0  0  0  0  0  0  0  0  0  0
  1  2  2  0
  2  3  1  0
  3  4  1  0
  3  5  2  0
  5  6  1  0
  6  7  2  0
  7  8  1  0
  8  9  2  0
  9 10  1  0
  9 11  1  0
 11 12  1  0
 11 13  2  0
  5 14  1  0
 14 15  1  0
 15 16  2  0
 16 17  1  0
 17 18  1  0
 17 19  2  0
 19 20  1  0
 20 21  1  0
 20 22  2  0
 22  2  1  0
 13  6  1  0
 22 15  1  0
M  END
$$$$
