quercetin
     RDKit          3D

  0  0  0  0  0  0  0  0  0  0999 V3000
M  V30 BEGIN CTAB
M  V30 COUNTS 22 24 0 0 0
M  V30 BEGIN ATOM
M  V30 1 O 1527025.500000 -2392047.250000 542124.812500 0
M  V30 2 C 1527026.375000 -2392046.750000 542125.500000 0
M  V30 3 C 1527027.500000 -2392047.250000 542126.312500 0
M  V30 4 O 1527026.875000 -2392048.250000 542127.062500 0
M  V30 5 C 1527028.000000 -2392046.000000 542127.000000 0
M  V30 6 C 1527029.125000 -2392045.750000 542128.437500 0
M  V30 7 C 1527030.625000 -2392045.250000 542128.375000 0
M  V30 8 C 1527031.250000 -2392045.500000 542129.562500 0
M  V30 9 C 1527030.500000 -2392044.000000 542130.375000 0
M  V30 10 O 1527031.250000 -2392043.750000 542131.187500 0
M  V30 11 C 1527029.375000 -2392043.750000 542129.875000 0
M  V30 12 O 1527029.750000 -2392042.500000 542130.750000 0
M  V30 13 C 1527028.000000 -2392045.000000 542129.000000 0
M  V30 14 O 1527028.125000 -2392044.500000 542126.562500 0
M  V30 15 C 1527027.500000 -2392044.500000 542125.437500 0
M  V30 16 C 1527027.500000 -2392043.250000 542124.750000 0
M  V30 17 C 1527027.750000 -2392042.750000 542123.312500 0
M  V30 18 O 1527027.500000 -2392041.500000 542122.812500 0
M  V30 19 C 1527026.375000 -2392043.750000 542122.625000 0
M  V30 20 C 1527025.750000 -2392044.000000 542123.375000 0
M  V30 21 O 1527025.375000 -2392046.000000 542123.000000 0
M  V30 22 C 1527026.875000 -2392045.500000 542124.437500 0
M  V30 END ATOM
M  V30 BEGIN BOND
M  V30 1 2 1 2
M  V30 2 1 2 3
M  V30 3 1 3 4
M  V30 4 2 3 5
M  V30 5 1 5 6
M  V30 6 2 6 7
M  V30 7 1 7 8
M  V30 8 2 8 9
M  V30 9 1 9 10
M  V30 10 1 9 11
M  V30 11 1 11 12
M  V30 12 2 11 13
M  V30 13 1 5 14
M  V30 14 1 14 15
M  V30 15 2 15 16
M  V30 16 1 16 17
M  V30 17 1 17 18
M  V30 18 2 17 19
M  V30 19 1 19 20
M  V30 20 1 20 21
M  V30 21 2 20 22
M  V30 22 1 22 2
M  V30 23 1 13 6
M  V30 24 1 22 15
M  V30 END BOND
M  V30 END CTAB
M  END
$$$$
