quercetin
     RDKit          3D

 22 24  0  0  0  0  0  0  0  0999 V2000
   24.7717   61.5548   21.9406 O   0  0  0  0  0  0  0  0  0  0  0  0
   23.5854   61.9888   21.8975 C   0  0  0  0  0  0  0  0  0  0  0  0
   23.3034   63.2245   21.3046 C   0  0  0  0  0  0  0  0  0  0  0  0
   24.3853   63.9047   20.7904 O   0  0  0  0  0  0  0  0  0  0  0  0
   22.0373   63.7410   21.2311 C   0  0  0  0  0  0  0  0  0  0  0  0
   21.6604   64.9997   20.6407 C   0  0  0  0  0  0  0  0  0  0  0  0
   20.3884   65.4668   20.4525 C   0  0  0  0  0  0  0  0  0  0  0  0
   20.1084   66.7030   19.8703 C   0  0  0  0  0  0  0  0  0  0  0  0
   21.1245   67.5246   19.4506 C   0  0  0  0  0  0  0  0  0  0  0  0
   20.8587   68.7560   18.8702 O   0  0  0  0  0  0  0  0  0  0  0  0
   22.4149   67.0748   19.6300 C   0  0  0  0  0  0  0  0  0  0  0  0
   23.4746   67.8706   19.2214 O   0  0  0  0  0  0  0  0  0  0  0  0
   22.6821   65.8523   20.2060 C   0  0  0  0  0  0  0  0  0  0  0  0
   21.0814   62.9796   21.7679 O   0  0  0  0  0  0  0  0  0  0  0  0
   21.2841   61.8354   22.3258 C   0  0  0  0  0  0  0  0  0  0  0  0
   20.2211   61.1485   22.8406 C   0  0  0  0  0  0  0  0  0  0  0  0
   20.4024   59.9053   23.4526 C   0  0  0  0  0  0  0  0  0  0  0  0
   19.2819   59.2409   23.9646 O   0  0  0  0  0  0  0  0  0  0  0  0
   21.6660   59.3734   23.5345 C   0  0  0  0  0  0  0  0  0  0  0  0
   22.7588   60.0381   23.0265 C   0  0  0  0  0  0  0  0  0  0  0  0
   24.0555   59.5353   23.0883 O   0  0  0  0  0  0  0  0  0  0  0  0
   22.5312   61.2673   22.4287 C   0  0  0  0  0  0  0  0  0  0  0  0
  1  2  2  0
  2  3  1  0
  3  4  1  0
  3  5  2  0
  5  6  1  0
  6  7  2  0
  7  8  1  0
  8  9  2  0
  9 10  1  0
  9 11  1  0
 11 12  1  0
 11 13  2  0
  5 14  1  0
 14 15  1  0
 15 16  2  0
 16 17  1  0
 17 18  1  0
 17 19  2  0
 19 20  1  0
 20 21  1  0
 20 22  2  0
 22  2  1  0
 13  6  1  0
 22 15  1  0
M  END
$$$$
