quercetin
     RDKit          3D

  0  0  0  0  0  0  0  0  0  0999 V3000
M  V30 BEGIN CTAB
M  V30 COUNTS 22 24 0 0 0
M  V30 BEGIN ATOM
M  V30 1 O 1954185.125000 -206579.890625 -289700.875000 0
M  V30 2 C 1954184.375000 -206580.031250 -289702.125000 0
M  V30 3 C 1954183.000000 -206579.218750 -289702.468750 0
M  V30 4 O 1954183.375000 -206578.093750 -289701.343750 0
M  V30 5 C 1954182.625000 -206579.406250 -289703.406250 0
M  V30 6 C 1954181.375000 -206578.546875 -289703.687500 0
M  V30 7 C 1954181.375000 -206577.718750 -289704.875000 0
M  V30 8 C 1954180.500000 -206576.750000 -289705.375000 0
M  V30 9 C 1954179.500000 -206576.656250 -289704.468750 0
M  V30 10 O 1954178.250000 -206575.609375 -289704.968750 0
M  V30 11 C 1954179.125000 -206577.437500 -289703.468750 0
M  V30 12 O 1954178.500000 -206577.312500 -289702.406250 0
M  V30 13 C 1954180.000000 -206578.156250 -289703.250000 0
M  V30 14 O 1954182.750000 -206580.421875 -289704.281250 0
M  V30 15 C 1954183.625000 -206581.296875 -289703.937500 0
M  V30 16 C 1954183.875000 -206582.328125 -289704.625000 0
M  V30 17 C 1954185.000000 -206583.234375 -289704.437500 0
M  V30 18 O 1954185.000000 -206584.406250 -289705.218750 0
M  V30 19 C 1954185.625000 -206583.046875 -289703.343750 0
M  V30 20 C 1954185.625000 -206582.078125 -289702.437500 0
M  V30 21 O 1954186.375000 -206581.875000 -289701.437500 0
M  V30 22 C 1954184.500000 -206581.125000 -289702.968750 0
M  V30 END ATOM
M  V30 BEGIN BOND
M  V30 1 2 1 2
M  V30 2 1 2 3
M  V30 3 1 3 4
M  V30 4 2 3 5
M  V30 5 1 5 6
M  V30 6 2 6 7
M  V30 7 1 7 8
M  V30 8 2 8 9
M  V30 9 1 9 10
M  V30 10 1 9 11
M  V30 11 1 11 12
M  V30 12 2 11 13
M  V30 13 1 5 14
M  V30 14 1 14 15
M  V30 15 2 15 16
M  V30 16 1 16 17
M  V30 17 1 17 18
M  V30 18 2 17 19
M  V30 19 1 19 20
M  V30 20 1 20 21
M  V30 21 2 20 22
M  V30 22 1 22 2
M  V30 23 1 13 6
M  V30 24 1 22 15
M  V30 END BOND
M  V30 END CTAB
M  END
$$$$
