quercetin
     RDKit          3D

 22 24  0  0  0  0  0  0  0  0999 V2000
   22.9310   62.8030   21.0687 O   0  0  0  0  0  0  0  0  0  0  0  0
   21.7257   62.8577   21.4452 C   0  0  0  0  0  0  0  0  0  0  0  0
   20.9484   63.9891   21.1731 C   0  0  0  0  0  0  0  0  0  0  0  0
   21.5815   65.0015   20.4863 O   0  0  0  0  0  0  0  0  0  0  0  0
   19.6389   64.1002   21.5579 C   0  0  0  0  0  0  0  0  0  0  0  0
   18.7703   65.2243   21.3197 C   0  0  0  0  0  0  0  0  0  0  0  0
   17.4698   65.3535   21.7242 C   0  0  0  0  0  0  0  0  0  0  0  0
   16.6946   66.4804   21.4510 C   0  0  0  0  0  0  0  0  0  0  0  0
   17.2181   67.5352   20.7460 C   0  0  0  0  0  0  0  0  0  0  0  0
   16.4573   68.6611   20.4682 O   0  0  0  0  0  0  0  0  0  0  0  0
   18.5270   67.4276   20.3279 C   0  0  0  0  0  0  0  0  0  0  0  0
   19.0993   68.4684   19.6123 O   0  0  0  0  0  0  0  0  0  0  0  0
   19.2852   66.3106   20.6024 C   0  0  0  0  0  0  0  0  0  0  0  0
   19.1491   63.0471   22.2160 O   0  0  0  0  0  0  0  0  0  0  0  0
   19.8188   61.9813   22.4932 C   0  0  0  0  0  0  0  0  0  0  0  0
   19.2049   60.9681   23.1740 C   0  0  0  0  0  0  0  0  0  0  0  0
   19.8991   59.7977   23.4921 C   0  0  0  0  0  0  0  0  0  0  0  0
   19.2262   58.7885   24.1907 O   0  0  0  0  0  0  0  0  0  0  0  0
   21.2131   59.6705   23.1134 C   0  0  0  0  0  0  0  0  0  0  0  0
   21.8622   60.6712   22.4267 C   0  0  0  0  0  0  0  0  0  0  0  0
   23.1919   60.5832   22.0243 O   0  0  0  0  0  0  0  0  0  0  0  0
   21.1344   61.8132   22.1332 C   0  0  0  0  0  0  0  0  0  0  0  0
  1  2  2  0
  2  3  1  0
  3  4  1  0
  3  5  2  0
  5  6  1  0
  6  7  2  0
  7  8  1  0
  8  9  2  0
  9 10  1  0
  9 11  1  0
 11 12  1  0
 11 13  2  0
  5 14  1  0
 14 15  1  0
 15 16  2  0
 16 17  1  0
 17 18  1  0
 17 19  2  0
 19 20  1  0
 20 21  1  0
 20 22  2  0
 22  2  1  0
 13  6  1  0
 22 15  1  0
M  END
$$$$
