quercetin
     RDKit          3D

 22 24  0  0  0  0  0  0  0  0999 V2000
   19.6167   64.8049   20.9218 O   0  0  0  0  0  0  0  0  0  0  0  0
   19.6910   63.6977   21.5270 C   0  0  0  0  0  0  0  0  0  0  0  0
   20.9177   63.0347   21.6445 C   0  0  0  0  0  0  0  0  0  0  0  0
   21.9984   63.6647   21.0676 O   0  0  0  0  0  0  0  0  0  0  0  0
   21.0540   61.8343   22.2890 C   0  0  0  0  0  0  0  0  0  0  0  0
   22.2741   61.0868   22.4552 C   0  0  0  0  0  0  0  0  0  0  0  0
   22.4717   60.0171   23.2848 C   0  0  0  0  0  0  0  0  0  0  0  0
   23.6902   59.3461   23.3868 C   0  0  0  0  0  0  0  0  0  0  0  0
   24.7711   59.7416   22.6393 C   0  0  0  0  0  0  0  0  0  0  0  0
   25.9879   59.0825   22.7320 O   0  0  0  0  0  0  0  0  0  0  0  0
   24.5957   60.8176   21.7960 C   0  0  0  0  0  0  0  0  0  0  0  0
   25.6597   61.2535   21.0207 O   0  0  0  0  0  0  0  0  0  0  0  0
   23.3884   61.4743   21.7017 C   0  0  0  0  0  0  0  0  0  0  0  0
   19.9278   61.3343   22.8025 O   0  0  0  0  0  0  0  0  0  0  0  0
   18.7729   61.9013   22.7239 C   0  0  0  0  0  0  0  0  0  0  0  0
   17.6912   61.2890   23.2911 C   0  0  0  0  0  0  0  0  0  0  0  0
   16.4235   61.8736   23.2260 C   0  0  0  0  0  0  0  0  0  0  0  0
   15.3469   61.2071   23.8225 O   0  0  0  0  0  0  0  0  0  0  0  0
   16.2699   63.0775   22.5831 C   0  0  0  0  0  0  0  0  0  0  0  0
   17.3378   63.7216   22.0010 C   0  0  0  0  0  0  0  0  0  0  0  0
   17.2261   64.9418   21.3402 O   0  0  0  0  0  0  0  0  0  0  0  0
   18.5753   63.1047   22.0904 C   0  0  0  0  0  0  0  0  0  0  0  0
  1  2  2  0
  2  3  1  0
  3  4  1  0
  3  5  2  0
  5  6  1  0
  6  7  2  0
  7  8  1  0
  8  9  2  0
  9 10  1  0
  9 11  1  0
 11 12  1  0
 11 13  2  0
  5 14  1  0
 14 15  1  0
 15 16  2  0
 16 17  1  0
 17 18  1  0
 17 19  2  0
 19 20  1  0
 20 21  1  0
 20 22  2  0
 22  2  1  0
 13  6  1  0
 22 15  1  0
M  END
$$$$
