quercetin
     RDKit          3D

 22 24  0  0  0  0  0  0  0  0999 V2000
   13.3733   47.9649   33.2284 O   0  0  0  0  0  0  0  0  0  0  0  0
   12.4159   48.5140   32.6125 C   0  0  0  0  0  0  0  0  0  0  0  0
   11.6702   49.5295   33.2216 C   0  0  0  0  0  0  0  0  0  0  0  0
   12.0512   49.8693   34.5010 O   0  0  0  0  0  0  0  0  0  0  0  0
   10.6240   50.1572   32.5999 C   0  0  0  0  0  0  0  0  0  0  0  0
    9.8071   51.2074   33.1518 C   0  0  0  0  0  0  0  0  0  0  0  0
    9.8016   51.6439   34.4483 C   0  0  0  0  0  0  0  0  0  0  0  0
    8.9756   52.6716   34.9035 C   0  0  0  0  0  0  0  0  0  0  0  0
    8.1105   53.3048   34.0467 C   0  0  0  0  0  0  0  0  0  0  0  0
    7.2842   54.3280   34.4874 O   0  0  0  0  0  0  0  0  0  0  0  0
    8.0984   52.8818   32.7350 C   0  0  0  0  0  0  0  0  0  0  0  0
    7.2406   53.4921   31.8324 O   0  0  0  0  0  0  0  0  0  0  0  0
    8.9178   51.8659   32.2943 C   0  0  0  0  0  0  0  0  0  0  0  0
   10.3608   49.7315   31.3624 O   0  0  0  0  0  0  0  0  0  0  0  0
   11.0139   48.8017   30.7539 C   0  0  0  0  0  0  0  0  0  0  0  0
   10.6481   48.4532   29.4844 C   0  0  0  0  0  0  0  0  0  0  0  0
   11.3327   47.4498   28.7935 C   0  0  0  0  0  0  0  0  0  0  0  0
   10.9199   47.1291   27.4951 O   0  0  0  0  0  0  0  0  0  0  0  0
   12.3844   46.8104   29.4030 C   0  0  0  0  0  0  0  0  0  0  0  0
   12.7794   47.1363   30.6804 C   0  0  0  0  0  0  0  0  0  0  0  0
   13.8389   46.5139   31.3346 O   0  0  0  0  0  0  0  0  0  0  0  0
   12.0715   48.1370   31.3267 C   0  0  0  0  0  0  0  0  0  0  0  0
  1  2  2  0
  2  3  1  0
  3  4  1  0
  3  5  2  0
  5  6  1  0
  6  7  2  0
  7  8  1  0
  8  9  2  0
  9 10  1  0
  9 11  1  0
 11 12  1  0
 11 13  2  0
  5 14  1  0
 14 15  1  0
 15 16  2  0
 16 17  1  0
 17 18  1  0
 17 19  2  0
 19 20  1  0
 20 21  1  0
 20 22  2  0
 22  2  1  0
 13  6  1  0
 22 15  1  0
M  END
$$$$
